M0001
  Spartan 01152412323D

 33 35  0  0  0  0  0  0  0  0999 V2000
   -0.7118    1.6117    0.9470 C   0  0  0  0  0  0  0  0  0  0  0  0
   -1.5706    0.5484    1.2490 C   0  0  0  0  0  0  0  0  0  0  0  0
   -2.9443    0.6036    1.0597 C   0  0  0  0  0  0  0  0  0  0  0  0
   -3.4612    1.7982    0.5426 C   0  0  0  0  0  0  0  0  0  0  0  0
   -2.6151    2.8786    0.2355 C   0  0  0  0  0  0  0  0  0  0  0  0
   -1.2344    2.7877    0.4370 C   0  0  0  0  0  0  0  0  0  0  0  0
   -0.2463    4.1377    0.0480 Cl  0  0  0  0  0  0  0  0  0  0  0  0
   -0.8469   -0.5158    1.7649 N   0  0  0  0  0  0  0  0  0  0  0  0
    0.5054   -0.2229    1.8596 C   0  0  0  0  0  0  0  0  0  0  0  0
    1.3373   -0.9442    2.3850 O   0  0  0  0  0  0  0  0  0  0  0  0
    0.7186    1.2103    1.2553 C   0  0  0  0  0  0  0  0  0  0  0  0
    1.2565    2.0891    2.2372 O   0  0  0  0  0  0  0  0  0  0  0  0
    1.5960    1.2183    0.0035 C   0  0  0  0  0  0  0  0  0  0  0  0
   -4.5312    1.9059    0.3718 H   0  0  0  0  0  0  0  0  0  0  0  0
   -3.0488    3.7933   -0.1643 H   0  0  0  0  0  0  0  0  0  0  0  0
   -1.2307   -1.3884    2.0982 H   0  0  0  0  0  0  0  0  0  0  0  0
    0.6158    2.1526    2.9660 H   0  0  0  0  0  0  0  0  0  0  0  0
    0.9884    1.0585   -0.8985 H   0  0  0  0  0  0  0  0  0  0  0  0
    2.0934    2.1847   -0.1402 H   0  0  0  0  0  0  0  0  0  0  0  0
    2.6340    0.1163   -0.0052 C   0  0  0  0  0  0  0  0  0  0  0  0
    2.3847   -0.9360   -0.6004 O   0  0  0  0  0  0  0  0  0  0  0  0
    3.8867    0.3528    0.6789 C   0  0  0  0  0  0  0  0  0  0  0  0
    4.9575   -0.4880    0.9185 C   0  0  0  0  0  0  0  0  0  0  0  0
    5.0177   -1.5256    0.6185 H   0  0  0  0  0  0  0  0  0  0  0  0
    4.1560    1.5884    1.1984 O   0  0  0  0  0  0  0  0  0  0  0  0
    5.9195    0.2683    1.6293 C   0  0  0  0  0  0  0  0  0  0  0  0
    6.8820   -0.0622    1.9932 H   0  0  0  0  0  0  0  0  0  0  0  0
    5.3824    1.5247    1.7761 C   0  0  0  0  0  0  0  0  0  0  0  0
    5.7262    2.4376    2.2424 H   0  0  0  0  0  0  0  0  0  0  0  0
   -3.8420   -0.5466    1.3941 C   0  0  0  0  0  0  0  0  0  0  0  0
   -3.5442   -1.4371    0.8313 H   0  0  0  0  0  0  0  0  0  0  0  0
   -4.8849   -0.3282    1.1416 H   0  0  0  0  0  0  0  0  0  0  0  0
   -3.7956   -0.7639    2.4660 H   0  0  0  0  0  0  0  0  0  0  0  0
  1 11  1  0  0  0  0
  1  6  1  0  0  0  0
  2  1  2  0  0  0  0
  3  4  2  0  0  0  0
  3  2  1  0  0  0  0
  4  5  1  0  0  0  0
  5 15  1  0  0  0  0
  5  6  2  0  0  0  0
  6  7  1  0  0  0  0
  8 16  1  0  0  0  0
  8  2  1  0  0  0  0
  8  9  1  0  0  0  0
  9 10  2  0  0  0  0
 11  9  1  0  0  0  0
 11 12  1  0  0  0  0
 12 17  1  0  0  0  0
 13 11  1  0  0  0  0
 14  4  1  0  0  0  0
 13 18  1  0  0  0  0
 13 19  1  0  0  0  0
 13 20  1  0  0  0  0
 20 21  2  0  0  0  0
 20 22  1  0  0  0  0
 23 24  1  0  0  0  0
 22 23  2  0  0  0  0
 22 25  1  0  0  0  0
 26 27  1  0  0  0  0
 23 26  1  0  0  0  0
 28 29  1  0  0  0  0
 25 28  1  0  0  0  0
 26 28  2  0  0  0  0
 30 31  1  0  0  0  0
 30 32  1  0  0  0  0
 30 33  1  0  0  0  0
  3 30  1  0  0  0  0
M  END
$$$$
M0001
  Spartan 01152412313D

 30 32  0  0  0  0  0  0  0  0999 V2000
   -0.7089    1.6227    0.9622 C   0  0  0  0  0  0  0  0  0  0  0  0
   -1.5658    0.5578    1.2525 C   0  0  0  0  0  0  0  0  0  0  0  0
   -2.9332    0.6196    1.0730 C   0  0  0  0  0  0  0  0  0  0  0  0
   -3.4633    1.8103    0.5768 C   0  0  0  0  0  0  0  0  0  0  0  0
   -2.6215    2.8961    0.2794 C   0  0  0  0  0  0  0  0  0  0  0  0
   -1.2375    2.8048    0.4717 C   0  0  0  0  0  0  0  0  0  0  0  0
   -0.2531    4.1609    0.0952 Cl  0  0  0  0  0  0  0  0  0  0  0  0
   -0.8515   -0.5190    1.7473 N   0  0  0  0  0  0  0  0  0  0  0  0
    0.5037   -0.2336    1.8398 C   0  0  0  0  0  0  0  0  0  0  0  0
    1.3353   -0.9669    2.3489 O   0  0  0  0  0  0  0  0  0  0  0  0
    0.7207    1.2114    1.2581 C   0  0  0  0  0  0  0  0  0  0  0  0
    1.2646    2.0727    2.2519 O   0  0  0  0  0  0  0  0  0  0  0  0
    1.5933    1.2381    0.0034 C   0  0  0  0  0  0  0  0  0  0  0  0
   -4.5359    1.9026    0.4188 H   0  0  0  0  0  0  0  0  0  0  0  0
   -3.0586    3.8156   -0.1056 H   0  0  0  0  0  0  0  0  0  0  0  0
   -1.2408   -1.3945    2.0670 H   0  0  0  0  0  0  0  0  0  0  0  0
    0.6309    2.1196    2.9880 H   0  0  0  0  0  0  0  0  0  0  0  0
    0.9819    1.0952   -0.8989 H   0  0  0  0  0  0  0  0  0  0  0  0
    2.0929    2.2054   -0.1259 H   0  0  0  0  0  0  0  0  0  0  0  0
    2.6277    0.1331   -0.0274 C   0  0  0  0  0  0  0  0  0  0  0  0
    2.3727   -0.9081   -0.6394 O   0  0  0  0  0  0  0  0  0  0  0  0
    3.8835    0.3541    0.6562 C   0  0  0  0  0  0  0  0  0  0  0  0
    4.9524   -0.4940    0.8776 C   0  0  0  0  0  0  0  0  0  0  0  0
    5.0085   -1.5265    0.5597 H   0  0  0  0  0  0  0  0  0  0  0  0
    4.1583    1.5798    1.1959 O   0  0  0  0  0  0  0  0  0  0  0  0
    5.9192    0.2472    1.5979 C   0  0  0  0  0  0  0  0  0  0  0  0
    6.8820   -0.0924    1.9527 H   0  0  0  0  0  0  0  0  0  0  0  0
    5.3865    1.5025    1.7680 C   0  0  0  0  0  0  0  0  0  0  0  0
    5.7348    2.4062    2.2486 H   0  0  0  0  0  0  0  0  0  0  0  0
   -3.5786   -0.2204    1.3066 H   0  0  0  0  0  0  0  0  0  0  0  0
  1 11  1  0  0  0  0
  1  6  1  0  0  0  0
  2  1  2  0  0  0  0
  3  4  2  0  0  0  0
  3  2  1  0  0  0  0
  4  5  1  0  0  0  0
  5 15  1  0  0  0  0
  5  6  2  0  0  0  0
  6  7  1  0  0  0  0
  8 16  1  0  0  0  0
  8  2  1  0  0  0  0
  8  9  1  0  0  0  0
  9 10  2  0  0  0  0
 11  9  1  0  0  0  0
 11 12  1  0  0  0  0
 12 17  1  0  0  0  0
 13 11  1  0  0  0  0
 14  4  1  0  0  0  0
 13 18  1  0  0  0  0
 13 19  1  0  0  0  0
 13 20  1  0  0  0  0
 20 21  2  0  0  0  0
 20 22  1  0  0  0  0
 23 24  1  0  0  0  0
 22 23  2  0  0  0  0
 22 25  1  0  0  0  0
 26 27  1  0  0  0  0
 23 26  1  0  0  0  0
 28 29  1  0  0  0  0
 25 28  1  0  0  0  0
 26 28  2  0  0  0  0
  3 30  1  0  0  0  0
M  END
$$$$
