Coordinates from ORCA-job orca_outputs/6-helicenes
  Spartan 03042414083D

 42 47  0  0  0  0  0  0  0  0999 V2000
    1.1523    5.3264   -0.8583 C   0  0  0  0  0  0  0  0  0  0  0  0
    1.1069    4.5372    0.3258 C   0  0  0  0  0  0  0  0  0  0  0  0
    0.8727    7.3761    0.4274 C   0  0  0  0  0  0  0  0  0  0  0  0
    1.2319    5.2278    1.5966 C   0  0  0  0  0  0  0  0  0  0  0  0
    0.9909    6.7449   -0.7778 C   0  0  0  0  0  0  0  0  0  0  0  0
    1.0445    6.6466    1.6435 C   0  0  0  0  0  0  0  0  0  0  0  0
    1.6060    4.5766    2.7971 C   0  0  0  0  0  0  0  0  0  0  0  0
    0.9604    7.3121   -1.7101 H   0  0  0  0  0  0  0  0  0  0  0  0
    0.9252    8.3964    2.9057 H   0  0  0  0  0  0  0  0  0  0  0  0
    0.7164    8.4552    0.4810 H   0  0  0  0  0  0  0  0  0  0  0  0
    1.6847    5.2595    3.9961 C   0  0  0  0  0  0  0  0  0  0  0  0
    1.8489    3.5169    2.7727 H   0  0  0  0  0  0  0  0  0  0  0  0
    1.9787    4.7259    4.9007 H   0  0  0  0  0  0  0  0  0  0  0  0
    1.3925    6.6370    4.0542 C   0  0  0  0  0  0  0  0  0  0  0  0
    1.4341    7.1668    5.0067 H   0  0  0  0  0  0  0  0  0  0  0  0
    1.0966    7.3181    2.8895 C   0  0  0  0  0  0  0  0  0  0  0  0
    1.6654    3.3663   -2.1860 C   0  0  0  0  0  0  0  0  0  0  0  0
    1.9734    2.9032   -3.1254 H   0  0  0  0  0  0  0  0  0  0  0  0
    1.3996    4.7072   -2.1166 C   0  0  0  0  0  0  0  0  0  0  0  0
    1.4479    5.3357   -3.0078 H   0  0  0  0  0  0  0  0  0  0  0  0
    0.9499    0.8257    1.1324 C   0  0  0  0  0  0  0  0  0  0  0  0
    0.5272    2.1842    1.1880 C   0  0  0  0  0  0  0  0  0  0  0  0
   -0.0728    0.3582    3.2929 C   0  0  0  0  0  0  0  0  0  0  0  0
   -0.4573    2.5391    2.1941 C   0  0  0  0  0  0  0  0  0  0  0  0
    0.6684   -0.0550    2.2231 C   0  0  0  0  0  0  0  0  0  0  0  0
   -0.6995    1.6418    3.2833 C   0  0  0  0  0  0  0  0  0  0  0  0
   -1.2541    3.7075    2.1190 C   0  0  0  0  0  0  0  0  0  0  0  0
    1.0676   -1.0703    2.1802 H   0  0  0  0  0  0  0  0  0  0  0  0
   -1.7576    1.3234    5.1405 H   0  0  0  0  0  0  0  0  0  0  0  0
   -0.2569   -0.3082    4.1377 H   0  0  0  0  0  0  0  0  0  0  0  0
   -2.1592    4.0308    3.1123 C   0  0  0  0  0  0  0  0  0  0  0  0
   -1.1597    4.3588    1.2534 H   0  0  0  0  0  0  0  0  0  0  0  0
   -2.7578    4.9377    3.0191 H   0  0  0  0  0  0  0  0  0  0  0  0
   -2.3146    3.1957    4.2369 C   0  0  0  0  0  0  0  0  0  0  0  0
   -3.0141    3.4669    5.0285 H   0  0  0  0  0  0  0  0  0  0  0  0
   -1.6071    2.0115    4.3060 C   0  0  0  0  0  0  0  0  0  0  0  0
    1.0326    3.0987    0.1865 C   0  0  0  0  0  0  0  0  0  0  0  0
    1.4971    2.5339   -1.0432 C   0  0  0  0  0  0  0  0  0  0  0  0
    1.7890    1.1424   -1.1180 C   0  0  0  0  0  0  0  0  0  0  0  0
    2.1892    0.7448   -2.0525 H   0  0  0  0  0  0  0  0  0  0  0  0
    1.6161    0.3347   -0.0266 C   0  0  0  0  0  0  0  0  0  0  0  0
    1.9141   -0.7151   -0.0524 H   0  0  0  0  0  0  0  0  0  0  0  0
  1  5  1  0  0  0  0
  1  2  1  0  0  0  0
  2  4  1  0  0  0  0
  3 10  1  0  0  0  0
  3  6  1  0  0  0  0
  4  6  2  0  0  0  0
  4  7  1  0  0  0  0
  5  3  2  0  0  0  0
  6 16  1  0  0  0  0
  7 11  2  0  0  0  0
  8  5  1  0  0  0  0
 11 14  1  0  0  0  0
 11 13  1  0  0  0  0
 12  7  1  0  0  0  0
 14 15  1  0  0  0  0
 16  9  1  0  0  0  0
 16 14  2  0  0  0  0
 17 19  1  0  0  0  0
 17 38  2  0  0  0  0
 18 17  1  0  0  0  0
 19  1  2  0  0  0  0
 20 19  1  0  0  0  0
 21 22  2  0  0  0  0
 21 25  1  0  0  0  0
 22 24  1  0  0  0  0
 23 30  1  0  0  0  0
 24 26  1  0  0  0  0
 25 23  2  0  0  0  0
 26 23  1  0  0  0  0
 26 36  2  0  0  0  0
 27 24  2  0  0  0  0
 27 31  1  0  0  0  0
 28 25  1  0  0  0  0
 31 34  2  0  0  0  0
 32 27  1  0  0  0  0
 33 31  1  0  0  0  0
 34 36  1  0  0  0  0
 34 35  1  0  0  0  0
 36 29  1  0  0  0  0
 37  2  2  0  0  0  0
 37 22  1  0  0  0  0
 38 37  1  0  0  0  0
 39 38  1  0  0  0  0
 39 41  2  0  0  0  0
 40 39  1  0  0  0  0
 41 21  1  0  0  0  0
 42 41  1  0  0  0  0
M  END
$$$$
