M0001
  Spartan 03042414053D

 42 47  0  0  0  0  0  0  0  0999 V2000
   -4.1870    0.3452    2.7898 H   0  0  0  0  0  0  0  0  0  0  0  0
   -3.2317    0.6067    2.3394 C   0  0  0  0  0  0  0  0  0  0  0  0
   -0.8302    1.3522    1.2000 C   0  0  0  0  0  0  0  0  0  0  0  0
   -2.9153    0.1763    1.0389 C   0  0  0  0  0  0  0  0  0  0  0  0
   -2.3508    1.4002    3.0666 C   0  0  0  0  0  0  0  0  0  0  0  0
   -1.1562    1.7919    2.4871 C   0  0  0  0  0  0  0  0  0  0  0  0
   -1.6590    0.4805    0.4494 C   0  0  0  0  0  0  0  0  0  0  0  0
   -2.6109    1.7339    4.0668 H   0  0  0  0  0  0  0  0  0  0  0  0
   -0.4707    2.4411    3.0250 H   0  0  0  0  0  0  0  0  0  0  0  0
    0.0987    1.7255    0.7758 H   0  0  0  0  0  0  0  0  0  0  0  0
   -1.3200   -0.0327   -0.8708 C   0  0  0  0  0  0  0  0  0  0  0  0
   -1.1265   -0.3976   -3.6525 C   0  0  0  0  0  0  0  0  0  0  0  0
   -0.0000    0.0000   -1.5171 C   0  0  0  0  0  0  0  0  0  0  0  0
   -2.4058   -0.5571   -1.6207 C   0  0  0  0  0  0  0  0  0  0  0  0
   -2.2876   -0.7626   -2.9922 C   0  0  0  0  0  0  0  0  0  0  0  0
   -0.0000    0.0000   -2.9346 C   0  0  0  0  0  0  0  0  0  0  0  0
   -3.1282   -1.1279   -3.5782 H   0  0  0  0  0  0  0  0  0  0  0  0
   -1.1027   -0.4613   -4.7384 H   0  0  0  0  0  0  0  0  0  0  0  0
   -3.6357   -0.8413   -1.0204 C   0  0  0  0  0  0  0  0  0  0  0  0
   -4.4412   -1.2976   -1.5927 H   0  0  0  0  0  0  0  0  0  0  0  0
   -3.8700   -0.5252    0.3100 C   0  0  0  0  0  0  0  0  0  0  0  0
   -4.8390   -0.7633    0.7428 H   0  0  0  0  0  0  0  0  0  0  0  0
    2.6109   -1.7339    4.0668 H   0  0  0  0  0  0  0  0  0  0  0  0
    2.3508   -1.4002    3.0666 C   0  0  0  0  0  0  0  0  0  0  0  0
    1.6590   -0.4805    0.4494 C   0  0  0  0  0  0  0  0  0  0  0  0
    1.1562   -1.7919    2.4871 C   0  0  0  0  0  0  0  0  0  0  0  0
    3.2317   -0.6067    2.3394 C   0  0  0  0  0  0  0  0  0  0  0  0
    2.9153   -0.1763    1.0389 C   0  0  0  0  0  0  0  0  0  0  0  0
    0.8302   -1.3522    1.2000 C   0  0  0  0  0  0  0  0  0  0  0  0
    0.4707   -2.4411    3.0250 H   0  0  0  0  0  0  0  0  0  0  0  0
    4.1870   -0.3452    2.7898 H   0  0  0  0  0  0  0  0  0  0  0  0
   -0.0987   -1.7255    0.7758 H   0  0  0  0  0  0  0  0  0  0  0  0
    1.3200    0.0327   -0.8708 C   0  0  0  0  0  0  0  0  0  0  0  0
    1.1265    0.3976   -3.6525 C   0  0  0  0  0  0  0  0  0  0  0  0
    2.4058    0.5571   -1.6207 C   0  0  0  0  0  0  0  0  0  0  0  0
    2.2876    0.7626   -2.9922 C   0  0  0  0  0  0  0  0  0  0  0  0
    3.1282    1.1279   -3.5782 H   0  0  0  0  0  0  0  0  0  0  0  0
    1.1027    0.4613   -4.7384 H   0  0  0  0  0  0  0  0  0  0  0  0
    3.8700    0.5252    0.3100 C   0  0  0  0  0  0  0  0  0  0  0  0
    4.8390    0.7633    0.7428 H   0  0  0  0  0  0  0  0  0  0  0  0
    3.6357    0.8413   -1.0204 C   0  0  0  0  0  0  0  0  0  0  0  0
    4.4412    1.2976   -1.5927 H   0  0  0  0  0  0  0  0  0  0  0  0
  1  2  1  0  0  0  0
  2  5  2  0  0  0  0
  5  6  1  0  0  0  0
  3  6  2  0  0  0  0
  3  7  1  0  0  0  0
  4  7  2  0  0  0  0
  2  4  1  0  0  0  0
  6  9  1  0  0  0  0
  3 10  1  0  0  0  0
  5  8  1  0  0  0  0
 11 14  2  0  0  0  0
 14 15  1  0  0  0  0
 12 15  2  0  0  0  0
 12 16  1  0  0  0  0
 13 16  2  0  0  0  0
 11 13  1  0  0  0  0
 15 17  1  0  0  0  0
 12 18  1  0  0  0  0
  7 11  1  0  0  0  0
 19 20  1  0  0  0  0
 14 19  1  0  0  0  0
 21 22  1  0  0  0  0
 19 21  2  0  0  0  0
  4 21  1  0  0  0  0
 23 24  1  0  0  0  0
 24 27  2  0  0  0  0
 27 28  1  0  0  0  0
 25 28  2  0  0  0  0
 25 29  1  0  0  0  0
 26 29  2  0  0  0  0
 24 26  1  0  0  0  0
 29 32  1  0  0  0  0
 26 30  1  0  0  0  0
 27 31  1  0  0  0  0
 33 35  2  0  0  0  0
 35 36  1  0  0  0  0
 34 36  2  0  0  0  0
 36 37  1  0  0  0  0
 34 38  1  0  0  0  0
 25 33  1  0  0  0  0
 39 40  1  0  0  0  0
 28 39  1  0  0  0  0
 41 42  1  0  0  0  0
 39 41  2  0  0  0  0
 41 35  1  0  0  0  0
 33 13  1  0  0  0  0
 34 16  1  0  0  0  0
M  END
$$$$
