M0001
  Spartan 01162414373D

 10  9  0  0  0  0  0  0  0  0999 V2000
   -0.6138    0.0173   -0.3943 N   0  0  0  0  0  0  0  0  0  0  0  0
   -1.5097   -0.0420    0.0888 H   0  0  0  0  0  0  0  0  0  0  0  0
    0.0992    1.2027    0.0619 C   0  0  0  0  0  0  0  0  0  0  0  0
    1.0569    1.3130   -0.4572 H   0  0  0  0  0  0  0  0  0  0  0  0
    0.2782    1.1731    1.1417 H   0  0  0  0  0  0  0  0  0  0  0  0
   -0.4978    2.0936   -0.1561 H   0  0  0  0  0  0  0  0  0  0  0  0
    0.1565   -1.1894   -0.1255 C   0  0  0  0  0  0  0  0  0  0  0  0
    1.1164   -1.1719   -0.6519 H   0  0  0  0  0  0  0  0  0  0  0  0
   -0.3982   -2.0629   -0.4817 H   0  0  0  0  0  0  0  0  0  0  0  0
    0.3379   -1.3196    0.9464 H   0  0  0  0  0  0  0  0  0  0  0  0
  1  2  1  0  0  0  0
  3  4  1  0  0  0  0
  3  5  1  0  0  0  0
  3  6  1  0  0  0  0
  1  3  1  0  0  0  0
  7  8  1  0  0  0  0
  7  9  1  0  0  0  0
  7 10  1  0  0  0  0
  1  7  1  0  0  0  0
M  END
$$$$
M0001
  Spartan 01162414373D

 11 10  0  0  0  0  0  0  0  0999 V2000
    0.0035    0.1155   -0.5576 N   0  3  0  0  0  0  0  0  0  0  0  0
    0.0571    1.0448   -0.9966 H   0  0  0  0  0  0  0  0  0  0  0  0
   -0.0443   -0.5585   -1.3339 H   0  0  0  0  0  0  0  0  0  0  0  0
    1.2461   -0.1271    0.2223 C   0  0  0  0  0  0  0  0  0  0  0  0
    1.3105    0.6274    1.0098 H   0  0  0  0  0  0  0  0  0  0  0  0
    2.0879   -0.0352   -0.4675 H   0  0  0  0  0  0  0  0  0  0  0  0
    1.1990   -1.1360    0.6388 H   0  0  0  0  0  0  0  0  0  0  0  0
   -1.2469    0.0263    0.2423 C   0  0  0  0  0  0  0  0  0  0  0  0
   -2.0820    0.2214   -0.4341 H   0  0  0  0  0  0  0  0  0  0  0  0
   -1.2057    0.7823    1.0300 H   0  0  0  0  0  0  0  0  0  0  0  0
   -1.3172   -0.9811    0.6590 H   0  0  0  0  0  0  0  0  0  0  0  0
  1  2  1  0  0  0  0
  1  3  1  0  0  0  0
  4  5  1  0  0  0  0
  4  6  1  0  0  0  0
  4  7  1  0  0  0  0
  1  4  1  0  0  0  0
  8  9  1  0  0  0  0
  8 10  1  0  0  0  0
  8 11  1  0  0  0  0
  1  8  1  0  0  0  0
M  CHG  1   1   1
M  END
$$$$
M0001
  Spartan 01162414373D

 10  9  0  0  0  0  0  0  0  0999 V2000
   -0.7301   -0.0028   -0.0044 N   0  0  0  0  0  0  0  0  0  0  0  0
   -1.2363    0.0660    0.8780 H   0  0  0  0  0  0  0  0  0  0  0  0
    0.0958   -1.2025    0.0091 C   0  0  0  0  0  0  0  0  0  0  0  0
    0.6347   -1.3229   -0.9363 H   0  0  0  0  0  0  0  0  0  0  0  0
   -0.5417   -2.0825    0.1388 H   0  0  0  0  0  0  0  0  0  0  0  0
    0.8169   -1.1846    0.8329 H   0  0  0  0  0  0  0  0  0  0  0  0
    0.0869    1.1899   -0.1824 C   2  0  0  0  0  0  0  0  0  0  0  0
    0.6254    1.1624   -1.1352 H   0  0  0  0  0  0  0  0  0  0  0  0
    0.8076    1.3085    0.6333 H   0  0  0  0  0  0  0  0  0  0  0  0
   -0.5572    2.0746   -0.1939 H   0  0  0  0  0  0  0  0  0  0  0  0
  1  2  1  0  0  0  0
  3  4  1  0  0  0  0
  3  5  1  0  0  0  0
  3  6  1  0  0  0  0
  1  3  1  0  0  0  0
  7  8  1  0  0  0  0
  7  9  1  0  0  0  0
  7 10  1  0  0  0  0
  1  7  1  0  0  0  0
M  ISO  1   7  13
M  END
$$$$
