M0001
  Spartan 01122412453D

 19 18  0  0  0  0  0  0  0  0999 V2000
    0.0219   -0.6381   -0.1880 N   0  0  0  0  0  0  0  0  0  0  0  0
   -0.9880   -0.7588   -0.1155 H   0  0  0  0  0  0  0  0  0  0  0  0
    0.6953   -1.8332    0.3208 C   0  0  0  0  0  0  0  0  0  0  0  0
    1.7825   -1.7015    0.2660 H   0  0  0  0  0  0  0  0  0  0  0  0
    0.4273   -2.7072   -0.2851 H   0  0  0  0  0  0  0  0  0  0  0  0
    0.3784   -0.3884   -1.5780 C   0  0  0  0  0  0  0  0  0  0  0  0
    1.4549   -0.2219   -1.6871 H   0  0  0  0  0  0  0  0  0  0  0  0
   -0.1312    0.5146   -1.9283 H   0  0  0  0  0  0  0  0  0  0  0  0
    0.0764   -1.2181   -2.2254 H   0  0  0  0  0  0  0  0  0  0  0  0
    0.2868   -2.0757    1.7756 C   0  0  0  0  0  0  0  0  0  0  0  0
   -0.8011   -2.2053    1.8404 H   0  0  0  0  0  0  0  0  0  0  0  0
    0.5444   -1.1996    2.3843 H   0  0  0  0  0  0  0  0  0  0  0  0
    0.9804   -3.3134    2.3459 C   0  0  0  0  0  0  0  0  0  0  0  0
    2.0682   -3.1894    2.2909 H   0  0  0  0  0  0  0  0  0  0  0  0
    0.7232   -4.1941    1.7459 H   0  0  0  0  0  0  0  0  0  0  0  0
    0.5793   -3.5606    3.7915 C   0  0  0  0  0  0  0  0  0  0  0  0
    1.0867   -4.4497    4.1788 H   0  0  0  0  0  0  0  0  0  0  0  0
   -0.5001   -3.7211    3.8772 H   0  0  0  0  0  0  0  0  0  0  0  0
    0.8521   -2.7107    4.4251 H   0  0  0  0  0  0  0  0  0  0  0  0
  1  2  1  0  0  0  0
  3  4  1  0  0  0  0
  3  5  1  0  0  0  0
  1  3  1  0  0  0  0
  6  7  1  0  0  0  0
  6  8  1  0  0  0  0
  6  9  1  0  0  0  0
  1  6  1  0  0  0  0
 10 11  1  0  0  0  0
 10 12  1  0  0  0  0
  3 10  1  0  0  0  0
 13 14  1  0  0  0  0
 13 15  1  0  0  0  0
 10 13  1  0  0  0  0
 16 17  1  0  0  0  0
 16 18  1  0  0  0  0
 16 19  1  0  0  0  0
 13 16  1  0  0  0  0
M  END
$$$$
M0001
  Spartan 01122412453D

 20 19  0  0  0  0  0  0  0  0999 V2000
    0.0262   -0.5458   -0.2648 N   0  3  0  0  0  0  0  0  0  0  0  0
    0.3396   -0.5609   -1.2452 H   0  0  0  0  0  0  0  0  0  0  0  0
   -1.0027   -0.5571   -0.2976 H   0  0  0  0  0  0  0  0  0  0  0  0
    0.4991   -1.7845    0.4101 C   0  0  0  0  0  0  0  0  0  0  0  0
    1.5913   -1.7901    0.3920 H   0  0  0  0  0  0  0  0  0  0  0  0
    0.1012   -2.6336   -0.1501 H   0  0  0  0  0  0  0  0  0  0  0  0
    0.1163   -1.7859    1.4333 H   0  0  0  0  0  0  0  0  0  0  0  0
    0.4889    0.7188    0.3858 C   0  0  0  0  0  0  0  0  0  0  0  0
    1.5837    0.7065    0.3815 H   0  0  0  0  0  0  0  0  0  0  0  0
    0.1183    0.7107    1.4159 H   0  0  0  0  0  0  0  0  0  0  0  0
   -0.0605    1.9043   -0.3973 C   0  0  0  0  0  0  0  0  0  0  0  0
   -1.1564    1.8590   -0.4203 H   0  0  0  0  0  0  0  0  0  0  0  0
    0.2846    1.8550   -1.4376 H   0  0  0  0  0  0  0  0  0  0  0  0
    0.3837    3.2268    0.2266 C   0  0  0  0  0  0  0  0  0  0  0  0
    1.4785    3.2797    0.2471 H   0  0  0  0  0  0  0  0  0  0  0  0
    0.0366    3.2838    1.2649 H   0  0  0  0  0  0  0  0  0  0  0  0
   -0.1588    4.4181   -0.5467 C   0  0  0  0  0  0  0  0  0  0  0  0
    0.1964    4.4085   -1.5821 H   0  0  0  0  0  0  0  0  0  0  0  0
    0.1711    5.3530   -0.0830 H   0  0  0  0  0  0  0  0  0  0  0  0
   -1.2534    4.4126   -0.5586 H   0  0  0  0  0  0  0  0  0  0  0  0
  1  2  1  0  0  0  0
  1  3  1  0  0  0  0
  4  5  1  0  0  0  0
  4  6  1  0  0  0  0
  4  7  1  0  0  0  0
  1  4  1  0  0  0  0
  8  9  1  0  0  0  0
  8 10  1  0  0  0  0
  1  8  1  0  0  0  0
 11 12  1  0  0  0  0
 11 13  1  0  0  0  0
  8 11  1  0  0  0  0
 14 15  1  0  0  0  0
 14 16  1  0  0  0  0
 11 14  1  0  0  0  0
 17 18  1  0  0  0  0
 17 19  1  0  0  0  0
 17 20  1  0  0  0  0
 14 17  1  0  0  0  0
M  CHG  1   1   1
M  END
$$$$
M0001
  Spartan 01122412463D

 19 18  0  0  0  0  0  0  0  0999 V2000
    0.6160    1.4447    1.4215 N   0  0  0  0  0  0  0  0  0  0  0  0
   -0.3928    1.3154    1.4947 H   0  0  0  0  0  0  0  0  0  0  0  0
    0.9749    1.7149    0.0291 C   0  0  0  0  0  0  0  0  0  0  0  0
    2.0562    1.8767   -0.0535 H   0  0  0  0  0  0  0  0  0  0  0  0
    0.7093    0.8600   -0.6044 H   0  0  0  0  0  0  0  0  0  0  0  0
    1.2913    0.2519    1.9140 C   2  0  0  0  0  0  0  0  0  0  0  0
    2.3792    0.3698    1.8794 H   0  0  0  0  0  0  0  0  0  0  0  0
    1.0084   -0.6360    1.3392 H   0  0  0  0  0  0  0  0  0  0  0  0
    1.0122    0.0800    2.9581 H   0  0  0  0  0  0  0  0  0  0  0  0
    0.2368    2.9627   -0.4612 C   0  0  0  0  0  0  0  0  0  0  0  0
    0.4921    3.8191    0.1757 H   0  0  0  0  0  0  0  0  0  0  0  0
   -0.8470    2.8108   -0.3788 H   0  0  0  0  0  0  0  0  0  0  0  0
    0.5957    3.2830   -1.9127 C   0  0  0  0  0  0  0  0  0  0  0  0
    1.6765    3.4426   -2.0027 H   0  0  0  0  0  0  0  0  0  0  0  0
    0.3382    2.4336   -2.5562 H   0  0  0  0  0  0  0  0  0  0  0  0
   -0.1340    4.5219   -2.4069 C   0  0  0  0  0  0  0  0  0  0  0  0
    0.1267    5.3975   -1.8038 H   0  0  0  0  0  0  0  0  0  0  0  0
   -1.2189    4.3830   -2.3604 H   0  0  0  0  0  0  0  0  0  0  0  0
    0.1373    4.7324   -3.4461 H   0  0  0  0  0  0  0  0  0  0  0  0
  1  2  1  0  0  0  0
  3  4  1  0  0  0  0
  3  5  1  0  0  0  0
  1  3  1  0  0  0  0
  6  7  1  0  0  0  0
  6  8  1  0  0  0  0
  6  9  1  0  0  0  0
  1  6  1  0  0  0  0
 10 11  1  0  0  0  0
 10 12  1  0  0  0  0
  3 10  1  0  0  0  0
 13 14  1  0  0  0  0
 13 15  1  0  0  0  0
 10 13  1  0  0  0  0
 16 17  1  0  0  0  0
 16 18  1  0  0  0  0
 16 19  1  0  0  0  0
 13 16  1  0  0  0  0
M  ISO  1   6  13
M  END
$$$$
