M0001
  Spartan 01122413463D

 34 33  0  0  0  0  0  0  0  0999 V2000
    0.0224   -0.6251   -0.1952 N   0  0  0  0  0  0  0  0  0  0  0  0
   -0.9877   -0.7386   -0.1144 H   0  0  0  0  0  0  0  0  0  0  0  0
    0.6913   -1.8259    0.3059 C   0  0  0  0  0  0  0  0  0  0  0  0
    1.7789   -1.7019    0.2423 H   0  0  0  0  0  0  0  0  0  0  0  0
    0.4120   -2.6969   -0.2992 H   0  0  0  0  0  0  0  0  0  0  0  0
    0.3691   -0.3755   -1.5877 C   0  0  0  0  0  0  0  0  0  0  0  0
    1.4458   -0.2166   -1.7054 H   0  0  0  0  0  0  0  0  0  0  0  0
   -0.1369    0.5317   -1.9321 H   0  0  0  0  0  0  0  0  0  0  0  0
    0.0557   -1.2019   -2.2339 H   0  0  0  0  0  0  0  0  0  0  0  0
    0.2931   -2.0679    1.7636 C   0  0  0  0  0  0  0  0  0  0  0  0
   -0.7950   -2.1899    1.8371 H   0  0  0  0  0  0  0  0  0  0  0  0
    0.5623   -1.1948    2.3715 H   0  0  0  0  0  0  0  0  0  0  0  0
    0.9829   -3.3126    2.3266 C   0  0  0  0  0  0  0  0  0  0  0  0
    2.0710   -3.1928    2.2567 H   0  0  0  0  0  0  0  0  0  0  0  0
    0.7142   -4.1868    1.7211 H   0  0  0  0  0  0  0  0  0  0  0  0
    0.5871   -3.5573    3.7837 C   0  0  0  0  0  0  0  0  0  0  0  0
   -0.5009   -3.6772    3.8536 H   0  0  0  0  0  0  0  0  0  0  0  0
    0.8558   -2.6831    4.3891 H   0  0  0  0  0  0  0  0  0  0  0  0
    1.2768   -4.8014    4.3460 C   0  0  0  0  0  0  0  0  0  0  0  0
    2.3648   -4.6815    4.2761 H   0  0  0  0  0  0  0  0  0  0  0  0
    1.0082   -5.6757    3.7406 H   0  0  0  0  0  0  0  0  0  0  0  0
    0.8810   -5.0462    5.8031 C   0  0  0  0  0  0  0  0  0  0  0  0
   -0.2070   -5.1661    5.8731 H   0  0  0  0  0  0  0  0  0  0  0  0
    1.1496   -4.1720    6.4086 H   0  0  0  0  0  0  0  0  0  0  0  0
    1.5706   -6.2903    6.3655 C   0  0  0  0  0  0  0  0  0  0  0  0
    2.6587   -6.1706    6.2955 H   0  0  0  0  0  0  0  0  0  0  0  0
    1.3022   -7.1646    5.7601 H   0  0  0  0  0  0  0  0  0  0  0  0
    1.1751   -6.5348    7.8216 C   0  0  0  0  0  0  0  0  0  0  0  0
    0.0885   -6.6593    7.8965 H   0  0  0  0  0  0  0  0  0  0  0  0
    1.4451   -5.6652    8.4320 H   0  0  0  0  0  0  0  0  0  0  0  0
    1.8586   -7.7707    8.3845 C   0  0  0  0  0  0  0  0  0  0  0  0
    2.9477   -7.6650    8.3538 H   0  0  0  0  0  0  0  0  0  0  0  0
    1.5836   -8.6646    7.8154 H   0  0  0  0  0  0  0  0  0  0  0  0
    1.5616   -7.9267    9.4263 H   0  0  0  0  0  0  0  0  0  0  0  0
  1  2  1  0  0  0  0
  3  4  1  0  0  0  0
  3  5  1  0  0  0  0
  1  3  1  0  0  0  0
  6  7  1  0  0  0  0
  6  8  1  0  0  0  0
  6  9  1  0  0  0  0
  1  6  1  0  0  0  0
 10 11  1  0  0  0  0
 10 12  1  0  0  0  0
  3 10  1  0  0  0  0
 13 14  1  0  0  0  0
 13 15  1  0  0  0  0
 10 13  1  0  0  0  0
 16 17  1  0  0  0  0
 16 18  1  0  0  0  0
 13 16  1  0  0  0  0
 19 20  1  0  0  0  0
 19 21  1  0  0  0  0
 16 19  1  0  0  0  0
 22 23  1  0  0  0  0
 22 24  1  0  0  0  0
 19 22  1  0  0  0  0
 25 26  1  0  0  0  0
 25 27  1  0  0  0  0
 22 25  1  0  0  0  0
 28 29  1  0  0  0  0
 28 30  1  0  0  0  0
 25 28  1  0  0  0  0
 31 32  1  0  0  0  0
 31 33  1  0  0  0  0
 31 34  1  0  0  0  0
 28 31  1  0  0  0  0
M  END
$$$$
M0001
  Spartan 01122413463D

 35 34  0  0  0  0  0  0  0  0999 V2000
    0.0258   -0.5590   -0.2683 N   0  3  0  0  0  0  0  0  0  0  0  0
    0.3371   -0.5710   -1.2494 H   0  0  0  0  0  0  0  0  0  0  0  0
   -1.0031   -0.5685   -0.2990 H   0  0  0  0  0  0  0  0  0  0  0  0
    0.4981   -1.8009    0.4010 C   0  0  0  0  0  0  0  0  0  0  0  0
    1.5903   -1.8082    0.3806 H   0  0  0  0  0  0  0  0  0  0  0  0
    0.0977   -2.6473   -0.1614 H   0  0  0  0  0  0  0  0  0  0  0  0
    0.1175   -1.8054    1.4250 H   0  0  0  0  0  0  0  0  0  0  0  0
    0.4920    0.7025    0.3858 C   0  0  0  0  0  0  0  0  0  0  0  0
    1.5867    0.6885    0.3791 H   0  0  0  0  0  0  0  0  0  0  0  0
    0.1236    0.6912    1.4167 H   0  0  0  0  0  0  0  0  0  0  0  0
   -0.0572    1.8917   -0.3918 C   0  0  0  0  0  0  0  0  0  0  0  0
   -1.1532    1.8482   -0.4124 H   0  0  0  0  0  0  0  0  0  0  0  0
    0.2858    1.8455   -1.4329 H   0  0  0  0  0  0  0  0  0  0  0  0
    0.3908    3.2122    0.2364 C   0  0  0  0  0  0  0  0  0  0  0  0
    1.4866    3.2564    0.2558 H   0  0  0  0  0  0  0  0  0  0  0  0
    0.0468    3.2591    1.2768 H   0  0  0  0  0  0  0  0  0  0  0  0
   -0.1568    4.4116   -0.5389 C   0  0  0  0  0  0  0  0  0  0  0  0
    0.1873    4.3647   -1.5793 H   0  0  0  0  0  0  0  0  0  0  0  0
   -1.2525    4.3674   -0.5583 H   0  0  0  0  0  0  0  0  0  0  0  0
    0.2915    5.7320    0.0897 C   0  0  0  0  0  0  0  0  0  0  0  0
    1.3872    5.7763    0.1091 H   0  0  0  0  0  0  0  0  0  0  0  0
   -0.0525    5.7790    1.1301 H   0  0  0  0  0  0  0  0  0  0  0  0
   -0.2560    6.9316   -0.6855 C   0  0  0  0  0  0  0  0  0  0  0  0
    0.0880    6.8846   -1.7259 H   0  0  0  0  0  0  0  0  0  0  0  0
   -1.3518    6.8873   -0.7049 H   0  0  0  0  0  0  0  0  0  0  0  0
    0.1922    8.2520   -0.0570 C   0  0  0  0  0  0  0  0  0  0  0  0
    1.2880    8.2964   -0.0374 H   0  0  0  0  0  0  0  0  0  0  0  0
   -0.1516    8.2991    0.9835 H   0  0  0  0  0  0  0  0  0  0  0  0
   -0.3550    9.4505   -0.8317 C   0  0  0  0  0  0  0  0  0  0  0  0
   -0.0107    9.4105   -1.8717 H   0  0  0  0  0  0  0  0  0  0  0  0
   -1.4504    9.4132   -0.8508 H   0  0  0  0  0  0  0  0  0  0  0  0
    0.0884   10.7652   -0.2100 C   0  0  0  0  0  0  0  0  0  0  0  0
    1.1799   10.8485   -0.2051 H   0  0  0  0  0  0  0  0  0  0  0  0
   -0.2678   10.8512    0.8215 H   0  0  0  0  0  0  0  0  0  0  0  0
   -0.3140   11.6087   -0.7797 H   0  0  0  0  0  0  0  0  0  0  0  0
  1  2  1  0  0  0  0
  1  3  1  0  0  0  0
  4  5  1  0  0  0  0
  4  6  1  0  0  0  0
  4  7  1  0  0  0  0
  1  4  1  0  0  0  0
  8  9  1  0  0  0  0
  8 10  1  0  0  0  0
  1  8  1  0  0  0  0
 11 12  1  0  0  0  0
 11 13  1  0  0  0  0
  8 11  1  0  0  0  0
 14 15  1  0  0  0  0
 14 16  1  0  0  0  0
 11 14  1  0  0  0  0
 17 18  1  0  0  0  0
 17 19  1  0  0  0  0
 14 17  1  0  0  0  0
 20 21  1  0  0  0  0
 20 22  1  0  0  0  0
 17 20  1  0  0  0  0
 23 24  1  0  0  0  0
 23 25  1  0  0  0  0
 20 23  1  0  0  0  0
 26 27  1  0  0  0  0
 26 28  1  0  0  0  0
 23 26  1  0  0  0  0
 29 30  1  0  0  0  0
 29 31  1  0  0  0  0
 26 29  1  0  0  0  0
 32 33  1  0  0  0  0
 32 34  1  0  0  0  0
 32 35  1  0  0  0  0
 29 32  1  0  0  0  0
M  CHG  1   1   1
M  END
$$$$
M0001
  Spartan 01122413463D

 34 33  0  0  0  0  0  0  0  0999 V2000
    0.6163    1.4398    1.4347 N   0  0  0  0  0  0  0  0  0  0  0  0
   -0.3926    1.3098    1.5051 H   0  0  0  0  0  0  0  0  0  0  0  0
    0.9793    1.7058    0.0425 C   0  0  0  0  0  0  0  0  0  0  0  0
    2.0607    1.8684   -0.0371 H   0  0  0  0  0  0  0  0  0  0  0  0
    0.7165    0.8486   -0.5890 H   0  0  0  0  0  0  0  0  0  0  0  0
    1.2911    0.2492    1.9331 C   2  0  0  0  0  0  0  0  0  0  0  0
    2.3790    0.3681    1.9016 H   0  0  0  0  0  0  0  0  0  0  0  0
    1.0109   -0.6408    1.3603 H   0  0  0  0  0  0  0  0  0  0  0  0
    1.0088    0.0805    2.9769 H   0  0  0  0  0  0  0  0  0  0  0  0
    0.2416    2.9513   -0.4540 C   0  0  0  0  0  0  0  0  0  0  0  0
    0.4943    3.8100    0.1809 H   0  0  0  0  0  0  0  0  0  0  0  0
   -0.8423    2.7985   -0.3747 H   0  0  0  0  0  0  0  0  0  0  0  0
    0.6050    3.2676   -1.9065 C   0  0  0  0  0  0  0  0  0  0  0  0
    1.6876    3.4232   -1.9888 H   0  0  0  0  0  0  0  0  0  0  0  0
    0.3519    2.4111   -2.5432 H   0  0  0  0  0  0  0  0  0  0  0  0
   -0.1308    4.5122   -2.4060 C   0  0  0  0  0  0  0  0  0  0  0  0
    0.1222    5.3687   -1.7693 H   0  0  0  0  0  0  0  0  0  0  0  0
   -1.2134    4.3566   -2.3239 H   0  0  0  0  0  0  0  0  0  0  0  0
    0.2327    4.8281   -3.8578 C   0  0  0  0  0  0  0  0  0  0  0  0
    1.3153    4.9836   -3.9400 H   0  0  0  0  0  0  0  0  0  0  0  0
   -0.0202    3.9715   -4.4945 H   0  0  0  0  0  0  0  0  0  0  0  0
   -0.5030    6.0726   -4.3574 C   0  0  0  0  0  0  0  0  0  0  0  0
   -0.2501    6.9291   -3.7207 H   0  0  0  0  0  0  0  0  0  0  0  0
   -1.5856    5.9171   -4.2752 H   0  0  0  0  0  0  0  0  0  0  0  0
   -0.1396    6.3886   -5.8092 C   0  0  0  0  0  0  0  0  0  0  0  0
    0.9430    6.5440   -5.8915 H   0  0  0  0  0  0  0  0  0  0  0  0
   -0.3924    5.5321   -6.4460 H   0  0  0  0  0  0  0  0  0  0  0  0
   -0.8748    7.6322   -6.3083 C   0  0  0  0  0  0  0  0  0  0  0  0
   -0.6224    8.4924   -5.6774 H   0  0  0  0  0  0  0  0  0  0  0  0
   -1.9578    7.4805   -6.2319 H   0  0  0  0  0  0  0  0  0  0  0  0
   -0.5163    7.9497   -7.7512 C   0  0  0  0  0  0  0  0  0  0  0  0
    0.5568    8.1389   -7.8563 H   0  0  0  0  0  0  0  0  0  0  0  0
   -1.0531    8.8423   -8.0875 H   0  0  0  0  0  0  0  0  0  0  0  0
   -0.7860    7.1213   -8.4139 H   0  0  0  0  0  0  0  0  0  0  0  0
  1  2  1  0  0  0  0
  3  4  1  0  0  0  0
  3  5  1  0  0  0  0
  1  3  1  0  0  0  0
  6  7  1  0  0  0  0
  6  8  1  0  0  0  0
  6  9  1  0  0  0  0
  1  6  1  0  0  0  0
 10 11  1  0  0  0  0
 10 12  1  0  0  0  0
  3 10  1  0  0  0  0
 13 14  1  0  0  0  0
 13 15  1  0  0  0  0
 10 13  1  0  0  0  0
 16 17  1  0  0  0  0
 16 18  1  0  0  0  0
 13 16  1  0  0  0  0
 19 20  1  0  0  0  0
 19 21  1  0  0  0  0
 16 19  1  0  0  0  0
 22 23  1  0  0  0  0
 22 24  1  0  0  0  0
 19 22  1  0  0  0  0
 25 26  1  0  0  0  0
 25 27  1  0  0  0  0
 22 25  1  0  0  0  0
 28 29  1  0  0  0  0
 28 30  1  0  0  0  0
 25 28  1  0  0  0  0
 31 32  1  0  0  0  0
 31 33  1  0  0  0  0
 31 34  1  0  0  0  0
 28 31  1  0  0  0  0
M  ISO  1   6  13
M  END
$$$$
