M0001
     RDKit          3D

 23 24  0  0  0  0  0  0  0  0999 V2000
    0.1233    0.9530    2.0669 C   0  0  1  0  0  0  0  0  0  0  0  0
   -1.6511    1.1388    2.2790 Cl  0  0  0  0  0  0  0  0  0  0  0  0
    0.5776    1.5462    0.7456 C   0  0  0  0  0  0  0  0  0  0  0  0
    1.4470    2.5403   -1.6727 C   0  0  0  0  0  0  0  0  0  0  0  0
    0.4100    2.9037    0.4614 C   0  0  0  0  0  0  0  0  0  0  0  0
    1.1700    0.6960   -0.1399 N   0  0  0  0  0  0  0  0  0  0  0  0
    1.5834    1.2093   -1.3200 C   0  0  0  0  0  0  0  0  0  0  0  0
    0.8500    3.4016   -0.7619 C   0  0  0  0  0  0  0  0  0  0  0  0
   -0.0563    3.5682    1.1846 H   0  0  0  0  0  0  0  0  0  0  0  0
    2.0437    0.4969   -1.9988 H   0  0  0  0  0  0  0  0  0  0  0  0
    0.7253    4.4543   -0.9991 H   0  0  0  0  0  0  0  0  0  0  0  0
    2.3391    2.4909    5.3892 C   0  0  0  0  0  0  0  0  0  0  0  0
    2.0070    0.7842    3.7332 C   0  0  0  0  0  0  0  0  0  0  0  0
    0.5200    2.6771    3.8165 N   0  0  0  0  0  0  0  0  0  0  0  0
    1.2382    3.1416    4.8622 C   0  0  0  0  0  0  0  0  0  0  0  0
    2.7304    1.2915    4.8096 C   0  0  0  0  0  0  0  0  0  0  0  0
    2.3132   -0.1480    3.2667 H   0  0  0  0  0  0  0  0  0  0  0  0
    0.8931    4.0840    5.2778 H   0  0  0  0  0  0  0  0  0  0  0  0
    3.5948    0.7545    5.1902 H   0  0  0  0  0  0  0  0  0  0  0  0
    0.8968    1.4905    3.2634 C   0  0  0  0  0  0  0  0  0  0  0  0
    2.8807    2.9109    6.2292 H   0  0  0  0  0  0  0  0  0  0  0  0
    1.7975    2.8977   -2.6341 H   0  0  0  0  0  0  0  0  0  0  0  0
    0.2684   -0.1332    2.0245 H   0  0  0  0  0  0  0  0  0  0  0  0
  1  2  1  0
  3  6  2  0
  6  7  1  0
  4  7  2  0
  4  8  1  0
  5  8  2  0
  3  5  1  0
  7 10  1  0
  8 11  1  0
  5  9  1  0
  1  3  1  0
 14 15  1  0
 12 15  2  0
 12 16  1  0
 13 16  2  0
 15 18  1  0
 16 19  1  0
 13 17  1  0
 14 20  2  0
 13 20  1  0
 20  1  1  0
 12 21  1  0
  4 22  1  0
  1 23  1  6
M  END
$$$$
