M0001
     RDKit          3D

 23 24  0  0  0  0  0  0  0  0999 V2000
    0.0231   -0.5806    1.3996 C   0  0  2  0  0  0  0  0  0  0  0  0
    0.0699    0.1850    3.0243 Cl  0  0  0  0  0  0  0  0  0  0  0  0
    1.2838   -0.2668    0.6146 C   0  0  0  0  0  0  0  0  0  0  0  0
    3.5832    0.2087   -0.8272 C   0  0  0  0  0  0  0  0  0  0  0  0
    1.6291    1.0466    0.2870 C   0  0  0  0  0  0  0  0  0  0  0  0
    2.0508   -1.3267    0.2321 N   0  0  0  0  0  0  0  0  0  0  0  0
    3.1754   -1.0644   -0.4708 C   0  0  0  0  0  0  0  0  0  0  0  0
    2.7921    1.2824   -0.4409 C   0  0  0  0  0  0  0  0  0  0  0  0
    0.9993    1.8783    0.5929 H   0  0  0  0  0  0  0  0  0  0  0  0
    3.7606   -1.9361   -0.7497 H   0  0  0  0  0  0  0  0  0  0  0  0
    3.0758    2.2980   -0.7021 H   0  0  0  0  0  0  0  0  0  0  0  0
   -3.5321    0.4007   -0.7707 C   0  0  0  0  0  0  0  0  0  0  0  0
   -1.8974   -1.2252   -0.1003 C   0  0  0  0  0  0  0  0  0  0  0  0
   -1.7129    1.0478    0.6747 N   0  0  0  0  0  0  0  0  0  0  0  0
   -2.8355    1.3314   -0.0214 C   0  0  0  0  0  0  0  0  0  0  0  0
   -3.0497   -0.9006   -0.8116 C   0  0  0  0  0  0  0  0  0  0  0  0
   -1.5068   -2.2384   -0.1360 H   0  0  0  0  0  0  0  0  0  0  0  0
   -3.1698    2.3631    0.0411 H   0  0  0  0  0  0  0  0  0  0  0  0
   -3.5647   -1.6585   -1.3954 H   0  0  0  0  0  0  0  0  0  0  0  0
   -1.2544   -0.2346    0.6463 C   0  0  0  0  0  0  0  0  0  0  0  0
   -4.4275    0.6842   -1.3122 H   0  0  0  0  0  0  0  0  0  0  0  0
    4.4955    0.3606   -1.3925 H   0  0  0  0  0  0  0  0  0  0  0  0
    0.0122   -1.6551    1.6181 H   0  0  0  0  0  0  0  0  0  0  0  0
  1  2  1  0
  3  6  2  0
  6  7  1  0
  4  7  2  0
  4  8  1  0
  5  8  2  0
  3  5  1  0
  7 10  1  0
  8 11  1  0
  5  9  1  0
  1  3  1  0
 14 15  1  0
 12 15  2  0
 12 16  1  0
 13 16  2  0
 15 18  1  0
 16 19  1  0
 13 17  1  0
 14 20  2  0
 13 20  1  0
 20  1  1  0
 12 21  1  0
  4 22  1  0
  1 23  1  6
M  END
$$$$
