AKUVUA
  --CCDC--021324    3D                              

 11 10  0  0  0  0  0  0  0  0999 V2000
    2.3513    3.0085    4.0113 Pt     0
    0.8851    1.2473    3.8392 Cl     0
    3.4203    2.0223    5.4393 N      0
    4.2472    2.0638    5.3751 H      0
    3.1595    1.3117    5.6800 H      0
    3.3704    2.5873    6.1614 H      0
    3.8175    4.7697    4.1834 Cl     0
    1.2823    3.9947    2.5833 N      0
    0.4554    3.9532    2.6475 H      0
    1.5431    4.7053    2.3426 H      0
    1.3322    3.4297    1.8612 H      0
  1  2  1
  3  1  1
  4  3  1
  5  3  1
  6  3  1
  7  1  1
  8  1  1
  9  8  1
 10  8  1
 11  8  1
M  END
$$$$
AKUVUA
  --CCDC--021324    3D                              

 11  8  0  0  0  0  0  0  0  0999 V2000
    2.3513    3.0085    4.0113 Pt     0
    0.8851    1.2473    3.8392 Cl     0
    3.4203    2.0223    5.4393 N      0
    4.2472    2.0638    5.3751 H      0
    3.1595    1.3117    5.6800 H      0
    3.3704    2.5873    6.1614 H      0
    3.8175    4.7697    4.1834 Cl     0
    1.2823    3.9947    2.5833 N      0
    0.4554    3.9532    2.6475 H      0
    1.5431    4.7053    2.3426 H      0
    1.3322    3.4297    1.8612 H      0
  1  2  1
  4  3  1
  5  3  1
  6  3  1
  7  1  1
  9  8  1
 10  8  1
 11  8  1
M  END
$$$$
