2214277
     RDKit          3D

 25 26  0  0  0  0  0  0  0  0999 V2000
   -1.0925    2.6870    3.3593 Cl  0  0  0  0  0  0  0  0  0  0  0  0
    4.7462    1.5456    5.1870 Cl  0  0  0  0  0  0  0  0  0  0  0  0
    2.5915    2.9372    6.7828 O   0  0  0  0  0  0  0  0  0  0  0  0
    0.1496    0.0826    1.7270 O   0  0  0  0  0  0  0  0  0  0  0  0
    0.5176    2.3009    3.8770 C   0  0  0  0  0  0  0  0  0  0  0  0
    0.9262    2.7343    5.1303 C   0  0  0  0  0  0  0  0  0  0  0  0
    0.3278    3.1734    5.6902 H   0  0  0  0  0  0  0  0  0  0  0  0
    2.2411    2.5081    5.5489 C   0  0  0  0  0  0  0  0  0  0  0  0
    3.1231    1.8500    4.6817 C   0  0  0  0  0  0  0  0  0  0  0  0
    2.7051    1.4322    3.4267 C   0  0  0  0  0  0  0  0  0  0  0  0
    3.3082    1.0157    2.8548 H   0  0  0  0  0  0  0  0  0  0  0  0
    1.3893    1.6321    3.0169 C   0  0  0  0  0  0  0  0  0  0  0  0
    0.9620    1.0075    1.7201 C   0  0  0  0  0  0  0  0  0  0  0  0
    1.5892    1.4813    0.4724 C   0  0  0  0  0  0  0  0  0  0  0  0
    2.1507    2.7574    0.4150 C   0  0  0  0  0  0  0  0  0  0  0  0
    2.1530    3.2993    1.1717 H   0  0  0  0  0  0  0  0  0  0  0  0
    2.7071    3.2191   -0.7737 C   0  0  0  0  0  0  0  0  0  0  0  0
    3.0618    4.0771   -0.8198 H   0  0  0  0  0  0  0  0  0  0  0  0
    2.7304    2.3959   -1.8904 C   0  0  0  0  0  0  0  0  0  0  0  0
    3.1137    2.7005   -2.6811 H   0  0  0  0  0  0  0  0  0  0  0  0
    2.1828    1.1168   -1.8346 C   0  0  0  0  0  0  0  0  0  0  0  0
    2.2119    0.5673   -2.5843 H   0  0  0  0  0  0  0  0  0  0  0  0
    1.5943    0.6590   -0.6658 C   0  0  0  0  0  0  0  0  0  0  0  0
    1.2064   -0.1853   -0.6358 H   0  0  0  0  0  0  0  0  0  0  0  0
    3.4034    3.0050    6.8236 H   0  0  0  0  0  0  0  0  0  0  0  0
  1  5  1  0
  2  9  1  0
  3  8  1  0
  3 25  1  0
  4 13  2  0
  5  6  1  0
  5 12  2  0
  6  7  1  0
  6  8  2  0
  8  9  1  0
  9 10  2  0
 10 11  1  0
 10 12  1  0
 12 13  1  0
 13 14  1  0
 14 15  1  0
 14 23  2  0
 15 16  1  0
 15 17  2  0
 17 18  1  0
 17 19  1  0
 19 20  1  0
 19 21  2  0
 21 22  1  0
 21 23  1  0
 23 24  1  0
M  END
$$$$
