1100237
  Spartan 03012410283D

 29 30  0  0  0  0  0  0  0  0999 V2000
    1.5243   10.2587    8.7945 F   0  0  0  0  0  0  0  0  0  0  0  0
    3.6933    9.2150    7.6021 O   0  0  0  0  0  0  0  0  0  0  0  0
    3.9859   10.0544    7.4016 H   0  0  0  0  0  0  0  0  0  0  0  0
    3.5604    9.0692    9.0343 C   0  0  0  0  0  0  0  0  0  0  0  0
    2.3858   10.2223   10.7781 F   0  0  0  0  0  0  0  0  0  0  0  0
    2.7013   10.2394    9.4596 C   0  0  0  0  0  0  0  0  0  0  0  0
    3.2890   11.4206    9.2209 F   0  0  0  0  0  0  0  0  0  0  0  0
    2.8113    7.7671    9.3115 C   0  0  0  0  0  0  0  0  0  0  0  0
    2.8186    7.2048   10.5973 C   0  0  0  0  0  0  0  0  0  0  0  0
    3.2857    7.6286   11.2815 H   0  0  0  0  0  0  0  0  0  0  0  0
    2.1429    6.0350   10.8579 C   0  0  0  0  0  0  0  0  0  0  0  0
    2.1820    5.6547   11.7055 H   0  0  0  0  0  0  0  0  0  0  0  0
    1.4085    5.4267    9.8617 C   0  0  0  0  0  0  0  0  0  0  0  0
    0.9260    4.6538   10.0472 H   0  0  0  0  0  0  0  0  0  0  0  0
    1.3898    5.9621    8.5973 C   0  0  0  0  0  0  0  0  0  0  0  0
    0.9105    5.5326    7.9251 H   0  0  0  0  0  0  0  0  0  0  0  0
    2.0663    7.1166    8.3087 C   0  0  0  0  0  0  0  0  0  0  0  0
    2.0337    7.4722    7.4500 H   0  0  0  0  0  0  0  0  0  0  0  0
    4.9591    9.0561    9.6709 C   0  0  0  0  0  0  0  0  0  0  0  0
    5.3316    9.7653   10.8121 C   0  0  0  0  0  0  0  0  0  0  0  0
    4.7024   10.2900   11.2528 H   0  0  0  0  0  0  0  0  0  0  0  0
    6.6187    9.7003   11.2977 C   0  0  0  0  0  0  0  0  0  0  0  0
    6.8534   10.1745   12.0618 H   0  0  0  0  0  0  0  0  0  0  0  0
    7.5561    8.9305   10.6481 C   0  0  0  0  0  0  0  0  0  0  0  0
    8.4290    8.8941   10.9672 H   0  0  0  0  0  0  0  0  0  0  0  0
    7.2039    8.2151    9.5263 C   0  0  0  0  0  0  0  0  0  0  0  0
    7.8405    7.6940    9.0917 H   0  0  0  0  0  0  0  0  0  0  0  0
    5.9210    8.2660    9.0431 C   0  0  0  0  0  0  0  0  0  0  0  0
    5.6903    7.7695    8.2916 H   0  0  0  0  0  0  0  0  0  0  0  0
  1  6  1  0  0  0  0
  2  3  1  0  0  0  0
  2  4  1  0  0  0  0
  4  6  1  0  0  0  0
  4  8  1  0  0  0  0
  4 19  1  0  0  0  0
  5  6  1  0  0  0  0
  6  7  1  0  0  0  0
  8  9  1  0  0  0  0
  8 17  2  0  0  0  0
  9 10  1  0  0  0  0
  9 11  2  0  0  0  0
 11 12  1  0  0  0  0
 11 13  1  0  0  0  0
 13 14  1  0  0  0  0
 13 15  2  0  0  0  0
 15 16  1  0  0  0  0
 15 17  1  0  0  0  0
 17 18  1  0  0  0  0
 19 20  1  0  0  0  0
 19 28  2  0  0  0  0
 20 21  1  0  0  0  0
 20 22  2  0  0  0  0
 22 23  1  0  0  0  0
 22 24  1  0  0  0  0
 24 25  1  0  0  0  0
 24 26  2  0  0  0  0
 26 27  1  0  0  0  0
 26 28  1  0  0  0  0
 28 29  1  0  0  0  0
M  END
$$$$
