M0001
  Spartan 03042413043D

 23 24  0  0  0  0  0  0  0  0999 V2000
    0.0336    0.1988    0.0241 C   0  0  0  0  0  0  0  0  0  0  0  0
    1.1466    0.9225    0.7383 C   0  0  0  0  0  0  0  0  0  0  0  0
    0.8009   -0.8003   -0.8464 C   0  0  0  0  0  0  0  0  0  0  0  0
    0.2361   -1.7153   -1.0540 H   0  0  0  0  0  0  0  0  0  0  0  0
    1.0811   -0.3497   -1.8066 H   0  0  0  0  0  0  0  0  0  0  0  0
   -0.9170   -0.5025    0.9682 C   0  0  0  0  0  0  0  0  0  0  0  0
   -2.3571   -0.1851    0.6621 C   0  0  0  0  0  0  0  0  0  0  0  0
   -2.7189    0.5558    1.3806 H   0  0  0  0  0  0  0  0  0  0  0  0
   -2.9766   -1.0840    0.6834 H   0  0  0  0  0  0  0  0  0  0  0  0
   -2.2528    0.3985   -0.7395 C   0  0  0  0  0  0  0  0  0  0  0  0
   -3.0854    1.0702   -0.9682 H   0  0  0  0  0  0  0  0  0  0  0  0
   -2.2547   -0.4069   -1.4843 H   0  0  0  0  0  0  0  0  0  0  0  0
   -0.9090    1.1174   -0.7563 C   0  0  0  0  0  0  0  0  0  0  0  0
   -1.0123    2.0924   -0.2637 H   0  0  0  0  0  0  0  0  0  0  0  0
   -0.5705    1.3085   -1.7799 H   0  0  0  0  0  0  0  0  0  0  0  0
    1.0058    1.9693    1.3594 O   0  0  0  0  0  0  0  0  0  0  0  0
   -0.5677   -1.2451    1.8779 O   0  0  0  0  0  0  0  0  0  0  0  0
    2.4727    0.2248    0.5723 C   0  0  0  0  0  0  0  0  0  0  0  0
    2.9729    0.0896    1.5335 H   0  0  0  0  0  0  0  0  0  0  0  0
    3.0954    0.8079   -0.1122 H   0  0  0  0  0  0  0  0  0  0  0  0
    2.0670   -1.1062   -0.0489 C   0  0  0  0  0  0  0  0  0  0  0  0
    2.8596   -1.5225   -0.6779 H   0  0  0  0  0  0  0  0  0  0  0  0
    1.8503   -1.8381    0.7383 H   0  0  0  0  0  0  0  0  0  0  0  0
  1  2  1  0  0  0  0
  1  3  1  0  0  0  0
  3  4  1  0  0  0  0
  3  5  1  0  0  0  0
  1  6  1  0  0  0  0
  7  8  1  0  0  0  0
  7  9  1  0  0  0  0
  6  7  1  0  0  0  0
 10 11  1  0  0  0  0
 10 12  1  0  0  0  0
  7 10  1  0  0  0  0
 13 14  1  0  0  0  0
 13 15  1  0  0  0  0
 10 13  1  0  0  0  0
  1 13  1  0  0  0  0
  2 16  2  0  0  0  0
  6 17  2  0  0  0  0
 18 19  1  0  0  0  0
 18 20  1  0  0  0  0
  2 18  1  0  0  0  0
 21 22  1  0  0  0  0
 21 23  1  0  0  0  0
  3 21  1  0  0  0  0
 18 21  1  0  0  0  0
M  END
$$$$
