M0001
  Spartan 03042412433D

 35 37  0  0  0  0  0  0  0  0999 V2000
    1.2049   -0.4567   -1.5653 C   0  0  0  0  0  0  0  0  0  0  0  0
    1.7710   -0.7891    1.1335 C   0  0  0  0  0  0  0  0  0  0  0  0
    0.8347   -1.6457   -0.9168 C   0  0  0  0  0  0  0  0  0  0  0  0
    2.1437    0.3813   -0.9559 C   0  0  0  0  0  0  0  0  0  0  0  0
    2.4255    0.2149    0.4017 C   0  0  0  0  0  0  0  0  0  0  0  0
    1.1192   -1.8140    0.4404 C   0  0  0  0  0  0  0  0  0  0  0  0
    0.1538   -2.3458   -1.3964 H   0  0  0  0  0  0  0  0  0  0  0  0
    2.4922    1.2790   -1.4605 H   0  0  0  0  0  0  0  0  0  0  0  0
    2.9895    0.9908    0.9142 H   0  0  0  0  0  0  0  0  0  0  0  0
    0.6508   -2.6346    0.9785 H   0  0  0  0  0  0  0  0  0  0  0  0
   -1.0687    1.2399   -0.8638 C   0  0  0  0  0  0  0  0  0  0  0  0
   -0.7038    0.5832    1.8215 C   0  0  0  0  0  0  0  0  0  0  0  0
   -1.8115    0.1771   -0.3146 C   0  0  0  0  0  0  0  0  0  0  0  0
   -0.4448    2.1513    0.0139 C   0  0  0  0  0  0  0  0  0  0  0  0
   -0.2608    1.8225    1.3583 C   0  0  0  0  0  0  0  0  0  0  0  0
   -1.6201   -0.1429    1.0413 C   0  0  0  0  0  0  0  0  0  0  0  0
    0.0856    3.0167   -0.3797 H   0  0  0  0  0  0  0  0  0  0  0  0
    0.4037    2.4340    1.9643 H   0  0  0  0  0  0  0  0  0  0  0  0
   -2.0349   -1.0676    1.4372 H   0  0  0  0  0  0  0  0  0  0  0  0
   -2.6393   -0.7112   -1.1789 C   0  0  0  0  0  0  0  0  0  0  0  0
   -2.9444   -0.5239   -2.3418 O   0  0  0  0  0  0  0  0  0  0  0  0
   -3.0670   -1.8178   -0.5404 O   0  0  0  0  0  0  0  0  0  0  0  0
   -3.6027   -2.2793   -1.2188 H   0  0  0  0  0  0  0  0  0  0  0  0
    0.3527    0.0630   -2.7163 C   0  0  0  0  0  0  0  0  0  0  0  0
   -0.2523   -0.7611   -3.1146 H   0  0  0  0  0  0  0  0  0  0  0  0
    1.0037    0.3802   -3.5402 H   0  0  0  0  0  0  0  0  0  0  0  0
   -0.6051    1.2489   -2.3220 C   0  0  0  0  0  0  0  0  0  0  0  0
   -1.4615    1.2884   -3.0033 H   0  0  0  0  0  0  0  0  0  0  0  0
   -0.0609    2.1851   -2.5082 H   0  0  0  0  0  0  0  0  0  0  0  0
    0.0280   -0.1192    2.9569 C   0  0  0  0  0  0  0  0  0  0  0  0
   -0.5446   -1.0081    3.2524 H   0  0  0  0  0  0  0  0  0  0  0  0
    0.0438    0.5294    3.8414 H   0  0  0  0  0  0  0  0  0  0  0  0
    1.4973   -0.5723    2.6153 C   0  0  0  0  0  0  0  0  0  0  0  0
    1.7339   -1.4879    3.1711 H   0  0  0  0  0  0  0  0  0  0  0  0
    2.1884    0.1914    2.9955 H   0  0  0  0  0  0  0  0  0  0  0  0
  1  4  2  0  0  0  0
  4  5  1  0  0  0  0
  2  5  2  0  0  0  0
  2  6  1  0  0  0  0
  3  6  2  0  0  0  0
  1  3  1  0  0  0  0
  5  9  1  0  0  0  0
  6 10  1  0  0  0  0
  3  7  1  0  0  0  0
  4  8  1  0  0  0  0
 11 14  2  0  0  0  0
 14 15  1  0  0  0  0
 12 15  2  0  0  0  0
 12 16  1  0  0  0  0
 13 16  2  0  0  0  0
 11 13  1  0  0  0  0
 15 18  1  0  0  0  0
 16 19  1  0  0  0  0
 14 17  1  0  0  0  0
 13 20  1  0  0  0  0
 20 21  2  0  0  0  0
 22 23  1  0  0  0  0
 20 22  1  0  0  0  0
 24 25  1  0  0  0  0
 24 26  1  0  0  0  0
  1 24  1  0  0  0  0
 27 28  1  0  0  0  0
 27 29  1  0  0  0  0
 11 27  1  0  0  0  0
 30 31  1  0  0  0  0
 30 32  1  0  0  0  0
 12 30  1  0  0  0  0
 33 34  1  0  0  0  0
 33 35  1  0  0  0  0
  2 33  1  0  0  0  0
 27 24  1  0  0  0  0
 33 30  1  0  0  0  0
M  END
$$$$
