M0001
  Spartan 03212415463D

 17 16  0  0  0  0  0  0  0  0999 V2000
    2.2354    1.0357   -2.7819 H   0  0  0  0  0  0  0  0  0  0  0  0
    1.1863    0.7568   -2.7927 C   0  0  0  0  0  0  0  0  0  0  0  0
    0.6649   -0.5893   -2.7980 C   0  0  0  0  0  0  0  0  0  0  0  0
    0.1322    2.7536   -2.8004 H   0  0  0  0  0  0  0  0  0  0  0  0
    1.2525   -1.5020   -2.7973 H   0  0  0  0  0  0  0  0  0  0  0  0
   -0.7762   -0.5067   -2.7910 C   0  0  0  0  0  0  0  0  0  0  0  0
   -1.4644   -1.3463   -2.7787 H   0  0  0  0  0  0  0  0  0  0  0  0
   -1.1450    0.8883   -2.7994 C   0  0  0  0  0  0  0  0  0  0  0  0
   -2.1577    1.2793   -2.7984 H   0  0  0  0  0  0  0  0  0  0  0  0
    0.0690    1.6699   -2.8005 C   0  0  0  0  0  0  0  0  0  0  0  0
    0.0012    0.4388   -4.8494 Mn  0  0  0  0  0  0  0  0  0  0  0  0
    1.9750    0.5310   -5.8027 C   0  0  0  0  0  0  0  0  0  0  0  0
    3.0060    0.5791   -6.3104 O   0  0  0  0  0  0  0  0  0  0  0  0
   -1.0726    2.1054   -5.7874 C   0  0  0  0  0  0  0  0  0  0  0  0
   -1.6337    2.9763   -6.2873 O   0  0  0  0  0  0  0  0  0  0  0  0
   -0.9009   -1.3205   -5.8002 C   0  0  0  0  0  0  0  0  0  0  0  0
   -1.3720   -2.2395   -6.3067 O   0  0  0  0  0  0  0  0  0  0  0  0
  1  2  1  0  0  0  0
  2 10  4  0  0  0  0
  8 10  4  0  0  0  0
  6  8  4  0  0  0  0
  3  6  4  0  0  0  0
  2  3  4  0  0  0  0
  3  5  1  0  0  0  0
  6  7  1  0  0  0  0
  8  9  1  0  0  0  0
  4 10  1  0  0  0  0
 12 13  3  0  0  0  0
 11 12  1  0  0  0  0
 14 15  3  0  0  0  0
 11 14  1  0  0  0  0
 16 17  3  0  0  0  0
 11 16  1  0  0  0  0
M  CHG  1   11   1
M  END
$$$$
