
 OpenBabel02142413013D

 17 16  0  0  0  0  0  0  0  0999 V2000
    0.0000    0.0000    0.0000 Re  0  0  0  0  0  0  0  0  0  0  0  0
    0.0657   -0.0339    2.5215 Br  0  0  0  0  0  0  0  0  0  0  0  0
    0.3713    0.0000   -4.2648 N   0  0  0  0  0  0  0  0  0  0  0  0
    0.2087    0.0116   -3.1410 C   0  0  0  0  0  0  0  0  0  0  0  0
   -0.0173    0.0107   -2.0902 O   0  5  0  0  0  0  0  0  0  0  0  0
   -0.8608   -1.9145    0.0009 N   0  0  0  0  0  0  0  0  0  0  0  0
   -1.1915   -2.7137   -0.0083 C   0  0  0  0  0  0  0  0  0  0  0  0
   -1.5839   -3.9612   -0.0434 O   0  0  0  0  0  0  0  0  0  0  0  0
    0.8610    1.9144    0.0074 N   0  0  0  0  0  0  0  0  0  0  0  0
    1.1913    2.7138    0.0025 C   0  0  0  0  0  0  0  0  0  0  0  0
    1.5823    3.9620   -0.0195 O   0  5  0  0  0  0  0  0  0  0  0  0
    1.9307   -0.8837   -0.0250 N   0  0  0  0  0  0  0  0  0  0  0  0
    2.6879   -1.3617    0.0495 C   0  0  0  0  0  0  0  0  0  0  0  0
    3.7765   -1.9902    0.0678 O   0  0  0  0  0  0  0  0  0  0  0  0
   -1.9674    0.8382    0.0567 N   0  0  0  0  0  0  0  0  0  0  0  0
   -2.7984    1.0848    0.0625 C   0  0  0  0  0  0  0  0  0  0  0  0
   -3.9779    1.4822    0.2572 O   0  0  0  0  0  0  0  0  0  0  0  0
  1  2  1  0  0  0  0
  3  4  3  0  0  0  0
  4  5  1  0  0  0  0
  5  1  9  0  0  0  0
  6  1  1  0  0  0  0
  7  6  2  0  0  0  0
  8  7  2  0  0  0  0
  9 10  2  0  0  0  0
  9  1  1  0  0  0  0
 10 11  2  0  0  0  0
 12  1  1  0  0  0  0
 13 12  2  0  0  0  0
 14 13  2  0  0  0  0
 15  1  1  0  0  0  0
 16 15  2  0  0  0  0
 17 16  2  0  0  0  0
M  CHG  2   5  -1  11  -1
M  END
$$$$

 OpenBabel02142413013D

 17 16  0  0  0  0  0  0  0  0999 V2000
    0.0000    0.0000    0.0000 Re  0  0  0  0  0  0  0  0  0  0  0  0
    0.0657   -0.0339    2.5215 Br  0  0  0  0  0  0  0  0  0  0  0  0
    0.3713    0.0000   -4.2648 N   0  0  0  0  0  0  0  0  0  0  0  0
    0.2087    0.0116   -3.1410 C   0  0  0  0  0  0  0  0  0  0  0  0
   -0.0173    0.0107   -2.0902 O   0  5  0  0  0  0  0  0  0  0  0  0
   -0.8608   -1.9145    0.0009 N   0  0  0  0  0  0  0  0  0  0  0  0
   -1.1915   -2.7137   -0.0083 C   0  0  0  0  0  0  0  0  0  0  0  0
   -1.5839   -3.9612   -0.0434 O   0  0  0  0  0  0  0  0  0  0  0  0
    1.6991    3.9292    0.5128 N   0  0  0  0  0  0  0  0  0  0  0  0
    1.2451    2.9122    0.3236 C   0  0  0  0  0  0  0  0  0  0  0  0
    0.8430    1.9206    0.0382 O   0  5  0  0  0  0  0  0  0  0  0  0
    1.9307   -0.8837   -0.0250 N   0  0  0  0  0  0  0  0  0  0  0  0
    2.6879   -1.3617    0.0495 C   0  0  0  0  0  0  0  0  0  0  0  0
    3.7765   -1.9902    0.0678 O   0  0  0  0  0  0  0  0  0  0  0  0
   -1.9674    0.8382    0.0567 N   0  0  0  0  0  0  0  0  0  0  0  0
   -2.7984    1.0848    0.0625 C   0  0  0  0  0  0  0  0  0  0  0  0
   -3.9779    1.4822    0.2572 O   0  0  0  0  0  0  0  0  0  0  0  0
  1  2  1  0  0  0  0
  3  4  3  0  0  0  0
  4  5  1  0  0  0  0
  5  1  9  0  0  0  0
  6  1  1  0  0  0  0
  7  6  2  0  0  0  0
  8  7  2  0  0  0  0
  9 10  3  0  0  0  0
 10 11  1  0  0  0  0
 11  1  9  0  0  0  0
 12  1  1  0  0  0  0
 13 12  2  0  0  0  0
 14 13  2  0  0  0  0
 15  1  1  0  0  0  0
 16 15  2  0  0  0  0
 17 16  2  0  0  0  0
M  CHG  2   5  -1  11  -1
M  END
$$$$