linkage_isomerism_1
  PyMOL2.5          3D                             0

 48 51  0  0  0  0  0  0  0  0999 V2000
    0.0000    0.0000    0.0928 Ru  0  0  0  0  0  0  0  0  0  0  0  0
    0.0000    0.0000   -2.2244 Cl  0  0  0  0  0  0  0  0  0  0  0  0
   -0.0007    2.1378    0.0261 N   0  0  0  0  0  0  0  0  0  0  0  0
    2.1378    0.0007    0.0261 N   0  0  0  0  0  0  0  0  0  0  0  0
    0.0007   -2.1378    0.0261 N   0  0  0  0  0  0  0  0  0  0  0  0
   -2.1378   -0.0007    0.0261 N   0  0  0  0  0  0  0  0  0  0  0  0
    0.0000    0.0000    1.8376 N   0  0  0  0  0  0  0  0  0  0  0  0
    0.0000    0.0000    2.9784 O   0  0  0  0  0  0  0  0  0  0  0  0
   -0.8071    2.8420    0.8499 C   0  0  0  0  0  0  0  0  0  0  0  0
   -1.4486    2.2766    1.5161 H   0  0  0  0  0  0  0  0  0  0  0  0
   -0.8361    4.2236    0.8509 C   0  0  0  0  0  0  0  0  0  0  0  0
   -1.5012    4.7421    1.5342 H   0  0  0  0  0  0  0  0  0  0  0  0
   -0.0116    4.9183   -0.0273 C   0  0  0  0  0  0  0  0  0  0  0  0
   -0.0164    6.0042   -0.0496 H   0  0  0  0  0  0  0  0  0  0  0  0
    0.8161    4.1950   -0.8758 C   0  0  0  0  0  0  0  0  0  0  0  0
    1.4740    4.6904   -1.5828 H   0  0  0  0  0  0  0  0  0  0  0  0
    0.7996    2.8119   -0.8250 C   0  0  0  0  0  0  0  0  0  0  0  0
    1.4213    2.2199   -1.4843 H   0  0  0  0  0  0  0  0  0  0  0  0
    2.8420    0.8071    0.8499 C   0  0  0  0  0  0  0  0  0  0  0  0
    2.2766    1.4486    1.5161 H   0  0  0  0  0  0  0  0  0  0  0  0
    4.2236    0.8361    0.8509 C   0  0  0  0  0  0  0  0  0  0  0  0
    4.7421    1.5012    1.5342 H   0  0  0  0  0  0  0  0  0  0  0  0
    4.9183    0.0116   -0.0273 C   0  0  0  0  0  0  0  0  0  0  0  0
    6.0042    0.0164   -0.0496 H   0  0  0  0  0  0  0  0  0  0  0  0
    4.1950   -0.8161   -0.8758 C   0  0  0  0  0  0  0  0  0  0  0  0
    4.6904   -1.4740   -1.5828 H   0  0  0  0  0  0  0  0  0  0  0  0
    2.8119   -0.7996   -0.8250 C   0  0  0  0  0  0  0  0  0  0  0  0
    2.2199   -1.4213   -1.4843 H   0  0  0  0  0  0  0  0  0  0  0  0
   -0.7996   -2.8119   -0.8250 C   0  0  0  0  0  0  0  0  0  0  0  0
   -1.4213   -2.2199   -1.4843 H   0  0  0  0  0  0  0  0  0  0  0  0
   -0.8161   -4.1950   -0.8758 C   0  0  0  0  0  0  0  0  0  0  0  0
   -1.4740   -4.6904   -1.5828 H   0  0  0  0  0  0  0  0  0  0  0  0
    0.0116   -4.9183   -0.0273 C   0  0  0  0  0  0  0  0  0  0  0  0
    0.0164   -6.0042   -0.0496 H   0  0  0  0  0  0  0  0  0  0  0  0
    0.8361   -4.2236    0.8509 C   0  0  0  0  0  0  0  0  0  0  0  0
    1.5012   -4.7421    1.5342 H   0  0  0  0  0  0  0  0  0  0  0  0
    0.8071   -2.8420    0.8499 C   0  0  0  0  0  0  0  0  0  0  0  0
    1.4486   -2.2766    1.5161 H   0  0  0  0  0  0  0  0  0  0  0  0
   -2.8119    0.7996   -0.8250 C   0  0  0  0  0  0  0  0  0  0  0  0
   -2.2199    1.4213   -1.4843 H   0  0  0  0  0  0  0  0  0  0  0  0
   -4.1950    0.8161   -0.8758 C   0  0  0  0  0  0  0  0  0  0  0  0
   -4.6904    1.4740   -1.5828 H   0  0  0  0  0  0  0  0  0  0  0  0
   -4.9183   -0.0116   -0.0273 C   0  0  0  0  0  0  0  0  0  0  0  0
   -6.0042   -0.0164   -0.0496 H   0  0  0  0  0  0  0  0  0  0  0  0
   -4.2236   -0.8361    0.8509 C   0  0  0  0  0  0  0  0  0  0  0  0
   -4.7421   -1.5012    1.5342 H   0  0  0  0  0  0  0  0  0  0  0  0
   -2.8420   -0.8071    0.8499 C   0  0  0  0  0  0  0  0  0  0  0  0
   -2.2766   -1.4486    1.5161 H   0  0  0  0  0  0  0  0  0  0  0  0
  1  2  1  0  0  0  0
  1  3  1  0  0  0  0
  1  4  1  0  0  0  0
  1  5  1  0  0  0  0
  1  6  1  0  0  0  0
  1  7  1  0  0  0  0
  3  9  1  0  0  0  0
  3 17  1  0  0  0  0
  4 19  1  0  0  0  0
  4 27  1  0  0  0  0
  5 29  1  0  0  0  0
  5 37  1  0  0  0  0
  6 39  1  0  0  0  0
  6 47  1  0  0  0  0
  7  8  1  0  0  0  0
  9 10  1  0  0  0  0
  9 11  1  0  0  0  0
 11 12  1  0  0  0  0
 11 13  1  0  0  0  0
 13 14  1  0  0  0  0
 13 15  1  0  0  0  0
 15 16  1  0  0  0  0
 15 17  1  0  0  0  0
 17 18  1  0  0  0  0
 19 20  1  0  0  0  0
 19 21  1  0  0  0  0
 21 22  1  0  0  0  0
 21 23  1  0  0  0  0
 23 24  1  0  0  0  0
 23 25  1  0  0  0  0
 25 26  1  0  0  0  0
 25 27  1  0  0  0  0
 27 28  1  0  0  0  0
 29 30  1  0  0  0  0
 29 31  1  0  0  0  0
 31 32  1  0  0  0  0
 31 33  1  0  0  0  0
 33 34  1  0  0  0  0
 33 35  1  0  0  0  0
 35 36  1  0  0  0  0
 35 37  1  0  0  0  0
 37 38  1  0  0  0  0
 39 40  1  0  0  0  0
 39 41  1  0  0  0  0
 41 42  1  0  0  0  0
 41 43  1  0  0  0  0
 43 44  1  0  0  0  0
 43 45  1  0  0  0  0
 45 46  1  0  0  0  0
 45 47  1  0  0  0  0
 47 48  1  0  0  0  0
M  CHG  1  1  2
M  END
$$$$
linkage_ismoerism_2
  PyMOL2.5          3D                             0

 48 51  0  0  0  0  0  0  0  0999 V2000
    0.0000    0.0000    0.0002 Ru  0  0  0  0  0  0  0  0  0  0  0  0
    0.0000    0.0000   -2.2779 Cl  0  0  0  0  0  0  0  0  0  0  0  0
   -0.0001    2.1282   -0.0179 N   0  0  0  0  0  0  0  0  0  0  0  0
    2.1282    0.0001   -0.0179 N   0  0  0  0  0  0  0  0  0  0  0  0
    0.0001   -2.1282   -0.0179 N   0  0  0  0  0  0  0  0  0  0  0  0
   -2.1282   -0.0001   -0.0179 N   0  0  0  0  0  0  0  0  0  0  0  0
    0.0000    0.0000    1.8539 O   0  0  0  0  0  0  0  0  0  0  0  0
    0.0000    0.0000    2.9909 N   0  0  0  0  0  0  0  0  0  0  0  0
   -0.7994    2.8118    0.8296 C   0  0  0  0  0  0  0  0  0  0  0  0
   -1.4455    2.2291    1.4771 H   0  0  0  0  0  0  0  0  0  0  0  0
   -0.8218    4.1931    0.8754 C   0  0  0  0  0  0  0  0  0  0  0  0
   -1.4818    4.6936    1.5768 H   0  0  0  0  0  0  0  0  0  0  0  0
   -0.0001    4.9106    0.0132 C   0  0  0  0  0  0  0  0  0  0  0  0
   -0.0009    5.9967    0.0234 H   0  0  0  0  0  0  0  0  0  0  0  0
    0.8182    4.2100   -0.8635 C   0  0  0  0  0  0  0  0  0  0  0  0
    1.4725    4.7247   -1.5598 H   0  0  0  0  0  0  0  0  0  0  0  0
    0.7968    2.8261   -0.8534 C   0  0  0  0  0  0  0  0  0  0  0  0
    1.4141    2.2509   -1.5318 H   0  0  0  0  0  0  0  0  0  0  0  0
    2.8118    0.7994    0.8296 C   0  0  0  0  0  0  0  0  0  0  0  0
    2.2291    1.4455    1.4771 H   0  0  0  0  0  0  0  0  0  0  0  0
    4.1931    0.8218    0.8754 C   0  0  0  0  0  0  0  0  0  0  0  0
    4.6936    1.4818    1.5768 H   0  0  0  0  0  0  0  0  0  0  0  0
    4.9106    0.0001    0.0132 C   0  0  0  0  0  0  0  0  0  0  0  0
    5.9967    0.0009    0.0234 H   0  0  0  0  0  0  0  0  0  0  0  0
    4.2100   -0.8182   -0.8635 C   0  0  0  0  0  0  0  0  0  0  0  0
    4.7247   -1.4725   -1.5598 H   0  0  0  0  0  0  0  0  0  0  0  0
    2.8261   -0.7968   -0.8534 C   0  0  0  0  0  0  0  0  0  0  0  0
    2.2509   -1.4141   -1.5318 H   0  0  0  0  0  0  0  0  0  0  0  0
   -0.7968   -2.8261   -0.8534 C   0  0  0  0  0  0  0  0  0  0  0  0
   -1.4141   -2.2509   -1.5318 H   0  0  0  0  0  0  0  0  0  0  0  0
   -0.8182   -4.2100   -0.8635 C   0  0  0  0  0  0  0  0  0  0  0  0
   -1.4725   -4.7247   -1.5598 H   0  0  0  0  0  0  0  0  0  0  0  0
    0.0001   -4.9106    0.0132 C   0  0  0  0  0  0  0  0  0  0  0  0
    0.0009   -5.9967    0.0234 H   0  0  0  0  0  0  0  0  0  0  0  0
    0.8218   -4.1931    0.8754 C   0  0  0  0  0  0  0  0  0  0  0  0
    1.4818   -4.6936    1.5768 H   0  0  0  0  0  0  0  0  0  0  0  0
    0.7994   -2.8118    0.8296 C   0  0  0  0  0  0  0  0  0  0  0  0
    1.4455   -2.2291    1.4771 H   0  0  0  0  0  0  0  0  0  0  0  0
   -2.8261    0.7968   -0.8534 C   0  0  0  0  0  0  0  0  0  0  0  0
   -2.2509    1.4141   -1.5318 H   0  0  0  0  0  0  0  0  0  0  0  0
   -4.2100    0.8182   -0.8635 C   0  0  0  0  0  0  0  0  0  0  0  0
   -4.7247    1.4725   -1.5598 H   0  0  0  0  0  0  0  0  0  0  0  0
   -4.9106   -0.0001    0.0132 C   0  0  0  0  0  0  0  0  0  0  0  0
   -5.9967   -0.0009    0.0234 H   0  0  0  0  0  0  0  0  0  0  0  0
   -4.1931   -0.8218    0.8754 C   0  0  0  0  0  0  0  0  0  0  0  0
   -4.6936   -1.4818    1.5768 H   0  0  0  0  0  0  0  0  0  0  0  0
   -2.8118   -0.7994    0.8296 C   0  0  0  0  0  0  0  0  0  0  0  0
   -2.2291   -1.4455    1.4771 H   0  0  0  0  0  0  0  0  0  0  0  0
  1  2  1  0  0  0  0
  1  3  1  0  0  0  0
  1  4  1  0  0  0  0
  1  5  1  0  0  0  0
  1  6  1  0  0  0  0
  1  7  1  0  0  0  0
  3  9  1  0  0  0  0
  3 17  1  0  0  0  0
  4 19  1  0  0  0  0
  4 27  1  0  0  0  0
  5 29  1  0  0  0  0
  5 37  1  0  0  0  0
  6 39  1  0  0  0  0
  6 47  1  0  0  0  0
  7  8  1  0  0  0  0
  9 10  1  0  0  0  0
  9 11  1  0  0  0  0
 11 12  1  0  0  0  0
 11 13  1  0  0  0  0
 13 14  1  0  0  0  0
 13 15  1  0  0  0  0
 15 16  1  0  0  0  0
 15 17  1  0  0  0  0
 17 18  1  0  0  0  0
 19 20  1  0  0  0  0
 19 21  1  0  0  0  0
 21 22  1  0  0  0  0
 21 23  1  0  0  0  0
 23 24  1  0  0  0  0
 23 25  1  0  0  0  0
 25 26  1  0  0  0  0
 25 27  1  0  0  0  0
 27 28  1  0  0  0  0
 29 30  1  0  0  0  0
 29 31  1  0  0  0  0
 31 32  1  0  0  0  0
 31 33  1  0  0  0  0
 33 34  1  0  0  0  0
 33 35  1  0  0  0  0
 35 36  1  0  0  0  0
 35 37  1  0  0  0  0
 37 38  1  0  0  0  0
 39 40  1  0  0  0  0
 39 41  1  0  0  0  0
 41 42  1  0  0  0  0
 41 43  1  0  0  0  0
 43 44  1  0  0  0  0
 43 45  1  0  0  0  0
 45 46  1  0  0  0  0
 45 47  1  0  0  0  0
 47 48  1  0  0  0  0
M  CHG  1  1  2
M  END
$$$$
