
 OpenBabel09132302183D

 22 21  0  0  0  0  0  0  0  0999 V2000
   -2.1188    1.6614   -2.3839 Co  0  0  0  0  0  0  0  0  0  0  0  0
   -1.0661    3.0984   -1.6041 N   0  0  0  0  0  0  0  0  0  0  0  0
   -0.0609    2.8385   -1.4971 H   0  0  0  0  0  0  0  0  0  0  0  0
   -1.4303    3.3946   -0.6719 H   0  0  0  0  0  0  0  0  0  0  0  0
   -0.7096    0.3860   -1.9903 N   0  0  0  0  0  0  0  0  0  0  0  0
   -1.1111   -0.5661   -1.8384 H   0  0  0  0  0  0  0  0  0  0  0  0
   -0.2074    0.6383   -1.1103 H   0  0  0  0  0  0  0  0  0  0  0  0
   -2.9047    1.2672   -0.6535 N   0  0  0  0  0  0  0  0  0  0  0  0
   -3.7815    1.8073   -0.4843 H   0  0  0  0  0  0  0  0  0  0  0  0
   -2.2362    1.4704    0.1223 H   0  0  0  0  0  0  0  0  0  0  0  0
   -1.1002    3.9379   -2.2253 H   0  0  0  0  0  0  0  0  0  0  0  0
   -0.0097    0.3172   -2.7613 H   0  0  0  0  0  0  0  0  0  0  0  0
   -3.1381    0.2516   -0.5837 H   0  0  0  0  0  0  0  0  0  0  0  0
   -1.3289    2.0407   -4.1014 N   0  0  0  0  0  0  0  0  0  0  0  0
   -3.5263    2.9235   -2.7620 N   0  0  0  0  0  0  0  0  0  0  0  0
   -3.1648    0.2469   -3.1673 N   0  0  0  0  0  0  0  0  0  0  0  0
   -0.1929    2.3994   -4.1753 O   0  0  0  0  0  0  0  0  0  0  0  0
   -1.9714    1.9315   -5.1012 O   0  0  0  0  0  0  0  0  0  0  0  0
   -3.7431    3.8256   -2.0112 O   0  0  0  0  0  0  0  0  0  0  0  0
   -4.1856    2.8176   -3.7512 O   0  0  0  0  0  0  0  0  0  0  0  0
   -2.6573   -0.5361   -3.9119 O   0  0  0  0  0  0  0  0  0  0  0  0
   -4.3197    0.1277   -2.8903 O   0  0  0  0  0  0  0  0  0  0  0  0
  1  2  1  0  0  0  0
  1  5  1  0  0  0  0
  1  8  1  0  0  0  0
  1 14  1  0  0  0  0
  1 15  1  0  0  0  0
  1 16  1  0  0  0  0
  2  3  1  0  0  0  0
  2  4  1  0  0  0  0
  2 11  1  0  0  0  0
  5  6  1  0  0  0  0
  5  7  1  0  0  0  0
  5 12  1  0  0  0  0
  8  9  1  0  0  0  0
  8 10  1  0  0  0  0
  8 13  1  0  0  0  0
 14 17  2  0  0  0  0
 14 18  2  0  0  0  0
 15 19  2  0  0  0  0
 15 20  2  0  0  0  0
 16 21  2  0  0  0  0
 16 22  2  0  0  0  0
M  END
$$$$

 OpenBabel09132302223D

 22 21  0  0  0  0  0  0  0  0999 V2000
   -2.1862    1.6672   -2.3998 Co  0  0  0  0  0  0  0  0  0  0  0  0
   -1.0911    3.0960   -1.6735 N   0  0  0  0  0  0  0  0  0  0  0  0
   -0.1313    2.7626   -1.4339 H   0  0  0  0  0  0  0  0  0  0  0  0
   -1.5136    3.5221   -0.8196 H   0  0  0  0  0  0  0  0  0  0  0  0
   -0.8192    0.3835   -1.9439 N   0  0  0  0  0  0  0  0  0  0  0  0
   -3.0179    1.3752   -0.6685 N   0  0  0  0  0  0  0  0  0  0  0  0
   -3.9585    1.8236   -0.6082 H   0  0  0  0  0  0  0  0  0  0  0  0
   -2.4330    1.7336    0.1182 H   0  0  0  0  0  0  0  0  0  0  0  0
   -0.9892    3.8616   -2.3767 H   0  0  0  0  0  0  0  0  0  0  0  0
   -3.1514    0.3513   -0.5087 H   0  0  0  0  0  0  0  0  0  0  0  0
   -1.3551    1.9602   -4.1305 N   0  0  0  0  0  0  0  0  0  0  0  0
   -3.5483    2.9510   -2.8517 N   0  0  0  0  0  0  0  0  0  0  0  0
   -3.2808    0.2543   -3.1238 N   0  0  0  0  0  0  0  0  0  0  0  0
   -3.7799    3.8671   -2.1226 O   0  0  0  0  0  0  0  0  0  0  0  0
   -4.1301    2.8687   -3.8907 O   0  0  0  0  0  0  0  0  0  0  0  0
   -2.7912   -0.6465   -3.7342 O   0  0  0  0  0  0  0  0  0  0  0  0
   -4.4514    0.2312   -2.8914 O   0  0  0  0  0  0  0  0  0  0  0  0
   -0.3144    1.9527   -4.0406 H   0  0  0  0  0  0  0  0  0  0  0  0
   -1.6161    2.8944   -4.5173 H   0  0  0  0  0  0  0  0  0  0  0  0
   -1.6273    1.2392   -4.8336 H   0  0  0  0  0  0  0  0  0  0  0  0
   -0.4715    0.2554   -0.8093 O   0  0  0  0  0  0  0  0  0  0  0  0
   -0.2755   -0.2535   -2.7942 O   0  0  0  0  0  0  0  0  0  0  0  0
  1  2  1  0  0  0  0
  1  5  1  0  0  0  0
  1  6  1  0  0  0  0
  1 11  1  0  0  0  0
  1 12  1  0  0  0  0
  1 13  1  0  0  0  0
  2  3  1  0  0  0  0
  2  4  1  0  0  0  0
  2  9  1  0  0  0  0
  5 21  2  0  0  0  0
  5 22  2  0  0  0  0
  6  7  1  0  0  0  0
  6  8  1  0  0  0  0
  6 10  1  0  0  0  0
 11 18  1  0  0  0  0
 11 19  1  0  0  0  0
 11 20  1  0  0  0  0
 12 14  2  0  0  0  0
 12 15  2  0  0  0  0
 13 16  2  0  0  0  0
 13 17  2  0  0  0  0
M  END
$$$$