
 OpenBabel09132321063D

 24 23  0  0  0  0  0  0  0  0999 V2000
    1.7045    1.7208   -3.9195 Co  0  0  0  0  0  0  0  0  0  0  0  0
    2.8791    0.2710   -4.4715 N   0  0  0  0  0  0  0  0  0  0  0  0
    3.8458    0.6191   -4.6574 H   0  0  0  0  0  0  0  0  0  0  0  0
    2.5363   -0.2142   -5.3293 H   0  0  0  0  0  0  0  0  0  0  0  0
    2.9091    3.0006   -4.7512 N   0  0  0  0  0  0  0  0  0  0  0  0
    2.4242    3.8879   -5.0084 H   0  0  0  0  0  0  0  0  0  0  0  0
    3.2900    2.6120   -5.6426 H   0  0  0  0  0  0  0  0  0  0  0  0
    0.7442    1.5894   -5.6054 N   0  0  0  0  0  0  0  0  0  0  0  0
    0.0241    0.8343   -5.5940 H   0  0  0  0  0  0  0  0  0  0  0  0
    1.3988    1.3845   -6.3925 H   0  0  0  0  0  0  0  0  0  0  0  0
    2.6713    1.8739   -2.2444 N   0  0  0  0  0  0  0  0  0  0  0  0
    2.0993    1.5335   -1.4403 H   0  0  0  0  0  0  0  0  0  0  0  0
    2.9004    2.8739   -2.0479 H   0  0  0  0  0  0  0  0  0  0  0  0
    0.5324    3.1568   -3.3310 N   0  0  0  0  0  0  0  0  0  0  0  0
    0.9762    4.0983   -3.3981 H   0  0  0  0  0  0  0  0  0  0  0  0
    0.2897    3.0129   -2.3251 H   0  0  0  0  0  0  0  0  0  0  0  0
    2.9673   -0.4530   -3.7261 H   0  0  0  0  0  0  0  0  0  0  0  0
    3.5669    1.3377   -2.2618 H   0  0  0  0  0  0  0  0  0  0  0  0
    3.7240    3.2308   -4.1410 H   0  0  0  0  0  0  0  0  0  0  0  0
    0.2768    2.4900   -5.8496 H   0  0  0  0  0  0  0  0  0  0  0  0
   -0.3693    3.1761   -3.8561 H   0  0  0  0  0  0  0  0  0  0  0  0
    0.5016    0.4458   -3.1142 N   0  0  0  0  0  0  0  0  0  0  0  0
    0.9631   -0.5360   -2.3700 O   0  0  0  0  0  0  0  0  0  0  0  0
   -0.6790    0.5939   -3.2095 O   0  0  0  0  0  0  0  0  0  0  0  0
  1  2  1  0  0  0  0
  1  5  1  0  0  0  0
  1  8  1  0  0  0  0
  1 11  1  0  0  0  0
  1 14  1  0  0  0  0
  1 22  1  0  0  0  0
  2  3  1  0  0  0  0
  2  4  1  0  0  0  0
  2 17  1  0  0  0  0
  5  6  1  0  0  0  0
  5  7  1  0  0  0  0
  5 19  1  0  0  0  0
  8  9  1  0  0  0  0
  8 10  1  0  0  0  0
  8 20  1  0  0  0  0
 11 12  1  0  0  0  0
 11 13  1  0  0  0  0
 11 18  1  0  0  0  0
 14 15  1  0  0  0  0
 14 16  1  0  0  0  0
 14 21  1  0  0  0  0
 22 23  1  0  0  0  0
 22 24  2  0  0  0  0
M  END
$$$$

 OpenBabel09132321073D

 24 23  0  0  0  0  0  0  0  0999 V2000
    1.6320    1.5679   -3.8739 Co  0  0  0  0  0  0  0  0  0  0  0  0
    2.8670    0.1839   -4.4370 N   0  0  0  0  0  0  0  0  0  0  0  0
    3.8313    0.5627   -4.5687 H   0  0  0  0  0  0  0  0  0  0  0  0
    2.5722   -0.2763   -5.3262 H   0  0  0  0  0  0  0  0  0  0  0  0
    2.7167    2.9194   -4.7469 N   0  0  0  0  0  0  0  0  0  0  0  0
    2.1161    3.6984   -5.0984 H   0  0  0  0  0  0  0  0  0  0  0  0
    3.2180    2.5259   -5.5741 H   0  0  0  0  0  0  0  0  0  0  0  0
    0.6454    1.3334   -5.5359 N   0  0  0  0  0  0  0  0  0  0  0  0
    0.2307    0.3764   -5.5887 H   0  0  0  0  0  0  0  0  0  0  0  0
    1.2927    1.4207   -6.3507 H   0  0  0  0  0  0  0  0  0  0  0  0
    2.6390    1.7879   -2.2328 N   0  0  0  0  0  0  0  0  0  0  0  0
    2.2004    1.2491   -1.4530 H   0  0  0  0  0  0  0  0  0  0  0  0
    2.6770    2.7900   -1.9418 H   0  0  0  0  0  0  0  0  0  0  0  0
    0.4157    2.9589   -3.2610 N   0  0  0  0  0  0  0  0  0  0  0  0
    0.9368    3.8471   -3.0879 H   0  0  0  0  0  0  0  0  0  0  0  0
   -0.0064    2.6827   -2.3463 H   0  0  0  0  0  0  0  0  0  0  0  0
    2.9220   -0.5573   -3.7027 H   0  0  0  0  0  0  0  0  0  0  0  0
    3.6223    1.4549   -2.3438 H   0  0  0  0  0  0  0  0  0  0  0  0
    3.4318    3.3228   -4.1024 H   0  0  0  0  0  0  0  0  0  0  0  0
   -0.1134    2.0312   -5.6876 H   0  0  0  0  0  0  0  0  0  0  0  0
   -0.3573    3.1878   -3.9209 H   0  0  0  0  0  0  0  0  0  0  0  0
    0.6201    0.2673   -3.0445 O   0  0  0  0  0  0  0  0  0  0  0  0
   -0.6944    0.1317   -3.0673 N   0  0  0  0  0  0  0  0  0  0  0  0
   -1.3924    0.8842   -3.6738 O   0  0  0  0  0  0  0  0  0  0  0  0
  1  2  1  0  0  0  0
  1  5  1  0  0  0  0
  1  8  1  0  0  0  0
  1 11  1  0  0  0  0
  1 14  1  0  0  0  0
  1 22  1  0  0  0  0
  2  3  1  0  0  0  0
  2  4  1  0  0  0  0
  2 17  1  0  0  0  0
  5  6  1  0  0  0  0
  5  7  1  0  0  0  0
  5 19  1  0  0  0  0
  8  9  1  0  0  0  0
  8 10  1  0  0  0  0
  8 20  1  0  0  0  0
 11 12  1  0  0  0  0
 11 13  1  0  0  0  0
 11 18  1  0  0  0  0
 14 15  1  0  0  0  0
 14 16  1  0  0  0  0
 14 21  1  0  0  0  0
 22 23  1  0  0  0  0
 23 24  2  0  0  0  0
M  END
$$$$
