M27
 OpenBabel12052311093D

 58 60  0  0  0  0  0  0  0  0999 V2000
    0.2097    0.9185    3.4494 C   0  0  0  0  0  0  0  0  0  0  0  0
    1.1853    0.9361    2.4467 C   0  0  0  0  0  0  0  0  0  0  0  0
    2.4940    0.5022    2.6722 C   0  0  0  0  0  0  0  0  0  0  0  0
    2.8292    0.0616    3.9521 C   0  0  0  0  0  0  0  0  0  0  0  0
    1.8897    0.0369    4.9839 C   0  0  0  0  0  0  0  0  0  0  0  0
    0.5886    0.4660    4.7129 C   0  0  0  0  0  0  0  0  0  0  0  0
    0.8510    1.4533    1.1533 N   0  0  0  0  0  0  0  0  0  0  0  0
    0.2543    0.8265    0.1395 C   0  0  0  0  0  3  0  0  0  0  0  0
    0.0243    1.7258   -0.8391 N   0  0  0  0  0  0  0  0  0  0  0  0
    0.6874    3.0072   -0.6135 C   0  0  0  0  0  0  0  0  0  0  0  0
    0.9850    2.8970    0.8895 C   0  0  0  0  0  0  0  0  0  0  0  0
   -0.3231   -0.9379   -0.6236 Ru  0  0  0  0  0  0  0  0  0  0  0  0
    0.5080   -2.0293    1.3242 Cl  0  0  0  0  0 15  0  0  0  0  0  0
   -0.3847    1.1386   -2.0715 C   0  0  0  0  0  0  0  0  0  0  0  0
   -1.5728    1.5972   -2.6934 C   0  0  0  0  0  0  0  0  0  0  0  0
   -1.9007    1.0953   -3.9390 C   0  0  0  0  0  0  0  0  0  0  0  0
   -1.0862    0.1586   -4.6068 C   0  0  0  0  0  0  0  0  0  0  0  0
    0.0487   -0.3051   -3.9702 C   0  0  0  0  0  0  0  0  0  0  0  0
    0.4124    0.1322   -2.6759 C   0  0  0  0  0  0  0  0  0  0  0  0
   -2.4659    2.5572   -1.9619 C   0  0  0  0  0  0  0  0  0  0  0  0
   -1.4795   -0.3389   -5.9720 C   0  0  0  0  0  0  0  0  0  0  0  0
    1.6334   -0.4460   -2.0107 C   0  0  0  0  0  0  0  0  0  0  0  0
    3.4808    0.4225    1.5398 C   0  0  0  0  0  0  0  0  0  0  0  0
    2.2542   -0.4825    6.3508 C   0  0  0  0  0  0  0  0  0  0  0  0
   -1.2113    1.3103    3.1536 C   0  0  0  0  0  0  0  0  0  0  0  0
   -1.0467   -3.1210   -0.9582 C   0  0  0  0  0  3  0  0  0  0  0  0
   -1.2431   -2.4450   -2.1293 C   0  0  0  0  0  0  0  0  0  0  0  0
   -2.5105   -0.5615    0.2100 Cl  0  0  0  0  0 15  0  0  0  0  0  0
    3.5103    1.3454    0.9397 H   0  0  0  0  0  0  0  0  0  0  0  0
    4.4956    0.2240    1.9101 H   0  0  0  0  0  0  0  0  0  0  0  0
    3.1920   -0.4048    0.8706 H   0  0  0  0  0  0  0  0  0  0  0  0
    3.8470   -0.2885    4.1427 H   0  0  0  0  0  0  0  0  0  0  0  0
    3.3396   -0.4451    6.5210 H   0  0  0  0  0  0  0  0  0  0  0  0
    1.7614    0.0973    7.1451 H   0  0  0  0  0  0  0  0  0  0  0  0
    1.9350   -1.5313    6.4622 H   0  0  0  0  0  0  0  0  0  0  0  0
   -0.1615    0.4373    5.5076 H   0  0  0  0  0  0  0  0  0  0  0  0
   -1.6595    0.6090    2.4308 H   0  0  0  0  0  0  0  0  0  0  0  0
   -1.8178    1.3015    4.0690 H   0  0  0  0  0  0  0  0  0  0  0  0
   -1.2814    2.3181    2.7141 H   0  0  0  0  0  0  0  0  0  0  0  0
    1.9928    3.2412    1.1579 H   0  0  0  0  0  0  0  0  0  0  0  0
    0.2556    3.4558    1.4974 H   0  0  0  0  0  0  0  0  0  0  0  0
    1.6058    3.0813   -1.2214 H   0  0  0  0  0  0  0  0  0  0  0  0
    0.0381    3.8588   -0.8552 H   0  0  0  0  0  0  0  0  0  0  0  0
   -1.9847    3.5362   -1.8104 H   0  0  0  0  0  0  0  0  0  0  0  0
   -2.7124    2.1389   -0.9734 H   0  0  0  0  0  0  0  0  0  0  0  0
   -3.3979    2.7234   -2.5175 H   0  0  0  0  0  0  0  0  0  0  0  0
   -2.8228    1.4340   -4.4180 H   0  0  0  0  0  0  0  0  0  0  0  0
   -2.4325   -0.8885   -5.9236 H   0  0  0  0  0  0  0  0  0  0  0  0
   -0.7206   -1.0132   -6.3916 H   0  0  0  0  0  0  0  0  0  0  0  0
   -1.6202    0.4987   -6.6720 H   0  0  0  0  0  0  0  0  0  0  0  0
    0.6821   -1.0437   -4.4669 H   0  0  0  0  0  0  0  0  0  0  0  0
    2.2347   -1.0106   -2.7366 H   0  0  0  0  0  0  0  0  0  0  0  0
    2.2700    0.3018   -1.5205 H   0  0  0  0  0  0  0  0  0  0  0  0
    1.4506   -1.2594   -1.2092 H   0  0  0  0  0  0  0  0  0  0  0  0
   -2.1973   -1.9623   -2.3583 H   0  0  0  0  0  0  0  0  0  0  0  0
   -0.5555   -2.5863   -2.9656 H   0  0  0  0  0  0  0  0  0  0  0  0
   -1.8274   -3.1856   -0.1995 H   0  0  0  0  0  0  0  0  0  0  0  0
   -0.1815   -3.7726   -0.8239 H   0  0  0  0  0  0  0  0  0  0  0  0
  1  6  1  0  0  0  0
  2  3  1  0  0  0  0
  2  1  2  0  0  0  0
  3  4  2  0  0  0  0
  4 32  1  0  0  0  0
  4  5  1  0  0  0  0
  5 24  1  0  0  0  0
  6  5  2  0  0  0  0
  6 36  1  0  0  0  0
  7  2  1  0  0  0  0
  8  7  1  0  0  0  0
  9 10  1  0  0  0  0
  9  8  1  0  0  0  0
 10 11  1  0  0  0  0
 11  7  1  0  0  0  0
 11 40  1  0  0  0  0
 11 41  1  0  0  0  0
 12  8  1  0  0  0  0
 12 13  1  0  0  0  0
 12 28  1  0  0  0  0
 14  9  1  0  0  0  0
 15 14  2  0  0  0  0
 15 20  1  0  0  0  0
 16 15  1  0  0  0  0
 17 18  1  0  0  0  0
 17 16  2  0  0  0  0
 18 19  2  0  0  0  0
 19 14  1  0  0  0  0
 19 22  1  0  0  0  0
 20 44  1  0  0  0  0
 20 45  1  0  0  0  0
 21 48  1  0  0  0  0
 21 17  1  0  0  0  0
 22 53  1  0  0  0  0
 22 54  1  0  0  0  0
 23 30  1  0  0  0  0
 23  3  1  0  0  0  0
 24 35  1  0  0  0  0
 24 33  1  0  0  0  0
 24 34  1  0  0  0  0
 25  1  1  0  0  0  0
 25 38  1  0  0  0  0
 26 58  1  0  0  0  0
 26 57  1  0  0  0  0
 27 26  1  0  0  0  0
 27 12  1  0  0  0  0
 29 23  1  0  0  0  0
 31 23  1  0  0  0  0
 37 25  1  0  0  0  0
 39 25  1  0  0  0  0
 42 10  1  0  0  0  0
 43 10  1  0  0  0  0
 46 20  1  0  0  0  0
 47 16  1  0  0  0  0
 49 21  1  0  0  0  0
 50 21  1  0  0  0  0
 51 18  1  0  0  0  0
 52 22  1  0  0  0  0
 55 27  1  0  0  0  0
 56 27  1  0  0  0  0
M  END
$$$$
M29
 OpenBabel12052311093D

 58 61  0  0  1  0  0  0  0  0999 V2000
   -0.3215    0.0285   -1.3648 Cl  0  0  0  0  0  0  0  0  0  0  0  0
    1.9983   -0.4607   -1.6119 Ru  0  0  0  0  0  0  0  0  0  0  0  0
    3.7994    1.6336   -1.4271 N   0  0  0  0  0  0  0  0  0  0  0  0
    2.0107    2.5131   -0.5577 N   0  0  0  0  0  0  0  0  0  0  0  0
    2.4928    1.4162   -1.1425 C   0  0  2  0  0  3  0  0  0  0  0  0
    4.5472    0.5249   -1.8988 C   0  0  0  0  0  0  0  0  0  0  0  0
    5.3605    0.6623   -3.0421 C   0  0  0  0  0  0  0  0  0  0  0  0
    5.3804    1.9489   -3.8181 C   0  0  0  0  0  0  0  0  0  0  0  0
    6.0615   -0.4512   -3.4742 C   0  0  0  0  0  0  0  0  0  0  0  0
    5.9793   -1.7009   -2.8295 C   0  0  0  0  0  0  0  0  0  0  0  0
    6.7692   -2.8713   -3.3522 C   0  0  0  0  0  0  0  0  0  0  0  0
    5.1375   -1.8192   -1.7415 C   0  0  0  0  0  0  0  0  0  0  0  0
    4.3996   -0.7195   -1.2449 C   0  0  0  0  0  0  0  0  0  0  0  0
    3.4261   -0.8698   -0.1351 C   0  0  0  0  0  0  0  0  0  0  0  0
    4.3220    2.8595   -0.8300 C   0  0  0  0  0  0  0  0  0  0  0  0
    3.0174    3.5822   -0.4748 C   0  0  0  0  0  0  0  0  0  0  0  0
    0.6581    2.8031   -0.1885 C   0  0  0  0  0  0  0  0  0  0  0  0
    0.2570    2.5496    1.1234 C   0  0  0  0  0  0  0  0  0  0  0  0
    1.1811    1.8518    2.0847 C   0  0  0  0  0  0  0  0  0  0  0  0
   -1.0457    2.8936    1.4886 C   0  0  0  0  0  0  0  0  0  0  0  0
   -1.9303    3.4669    0.5754 C   0  0  0  0  0  0  0  0  0  0  0  0
   -1.4922    3.6883   -0.7338 C   0  0  0  0  0  0  0  0  0  0  0  0
   -0.2026    3.3578   -1.1434 C   0  0  0  0  0  0  0  0  0  0  0  0
    0.2262    3.4953   -2.5782 C   0  0  0  0  0  0  0  0  0  0  0  0
   -3.3433    3.8111    0.9705 C   0  0  0  0  0  0  0  0  0  0  0  0
    2.1705    2.3327    2.1366 H   0  0  0  0  0  0  0  0  0  0  0  0
    0.7584    1.8333    3.0982 H   0  0  0  0  0  0  0  0  0  0  0  0
    1.3393    0.8104    1.7601 H   0  0  0  0  0  0  0  0  0  0  0  0
   -1.3803    2.6949    2.5100 H   0  0  0  0  0  0  0  0  0  0  0  0
   -4.0587    3.1285    0.4850 H   0  0  0  0  0  0  0  0  0  0  0  0
   -3.4897    3.7335    2.0569 H   0  0  0  0  0  0  0  0  0  0  0  0
   -3.6058    4.8343    0.6618 H   0  0  0  0  0  0  0  0  0  0  0  0
   -2.1850    4.1115   -1.4658 H   0  0  0  0  0  0  0  0  0  0  0  0
    0.4229    2.4996   -3.0098 H   0  0  0  0  0  0  0  0  0  0  0  0
   -0.5556    3.9831   -3.1752 H   0  0  0  0  0  0  0  0  0  0  0  0
    1.1489    4.0874   -2.6855 H   0  0  0  0  0  0  0  0  0  0  0  0
    3.0260    4.0177    0.5333 H   0  0  0  0  0  0  0  0  0  0  0  0
    2.7731    4.3807   -1.1932 H   0  0  0  0  0  0  0  0  0  0  0  0
    4.9286    2.6224    0.0600 H   0  0  0  0  0  0  0  0  0  0  0  0
    4.9396    3.4308   -1.5337 H   0  0  0  0  0  0  0  0  0  0  0  0
    5.9811    2.7270   -3.3201 H   0  0  0  0  0  0  0  0  0  0  0  0
    4.3524    2.3224   -3.9388 H   0  0  0  0  0  0  0  0  0  0  0  0
    5.8077    1.7905   -4.8167 H   0  0  0  0  0  0  0  0  0  0  0  0
    6.6795   -0.3629   -4.3719 H   0  0  0  0  0  0  0  0  0  0  0  0
    6.5003   -3.0869   -4.3977 H   0  0  0  0  0  0  0  0  0  0  0  0
    6.5853   -3.7781   -2.7603 H   0  0  0  0  0  0  0  0  0  0  0  0
    7.8497   -2.6611   -3.3278 H   0  0  0  0  0  0  0  0  0  0  0  0
    5.0383   -2.7813   -1.2347 H   0  0  0  0  0  0  0  0  0  0  0  0
    3.4554   -1.8683    0.3173 H   0  0  0  0  0  0  0  0  0  0  0  0
    3.5111   -0.1018    0.6449 H   0  0  0  0  0  0  0  0  0  0  0  0
    1.5688   -0.8453   -0.1560 H   0  0  0  0  0  0  0  0  0  0  0  0
    1.9098    0.1532   -3.9806 Cl  0  0  0  0  0 15  0  0  0  0  0  0
    2.2287   -2.7498   -2.3267 C   0  0  0  0  0  0  0  0  0  0  0  0
    2.7756   -2.5966   -3.2596 H   0  0  0  0  0  0  0  0  0  0  0  0
    2.7438   -3.2787   -1.5215 H   0  0  0  0  0  0  0  0  0  0  0  0
    0.8966   -2.5117   -2.2491 C   0  0  0  0  0  3  0  0  0  0  0  0
    0.3408   -2.1365   -3.1094 H   0  0  0  0  0  0  0  0  0  0  0  0
    0.3146   -2.8093   -1.3759 H   0  0  0  0  0  0  0  0  0  0  0  0
  2  1  1  0  0  0  0
  2 52  1  0  0  0  0
  2  5  1  0  0  0  0
  2 51  1  0  0  0  0
  2 14  1  0  0  0  0
  3 15  1  0  0  0  0
  4 16  1  0  0  0  0
  4 17  1  0  0  0  0
  5  3  1  1  0  0  0
  5  4  1  0  0  0  0
  6  3  1  0  0  0  0
  6 13  1  0  0  0  0
  7  6  2  0  0  0  0
  8 41  1  0  0  0  0
  8  7  1  0  0  0  0
  9  7  1  0  0  0  0
  9 10  2  0  0  0  0
 10 12  1  0  0  0  0
 11 47  1  0  0  0  0
 11 10  1  0  0  0  0
 11 46  1  0  0  0  0
 12 13  2  0  0  0  0
 12 48  1  0  0  0  0
 13 14  1  0  0  0  0
 14 49  1  0  0  0  0
 14 50  1  0  0  0  0
 15 16  1  0  0  0  0
 15 39  1  0  0  0  0
 16 37  1  0  0  0  0
 17 18  1  0  0  0  0
 18 20  2  0  0  0  0
 18 19  1  0  0  0  0
 19 26  1  0  0  0  0
 19 27  1  0  0  0  0
 20 29  1  0  0  0  0
 21 25  1  0  0  0  0
 21 20  1  0  0  0  0
 22 21  2  0  0  0  0
 23 22  1  0  0  0  0
 23 17  2  0  0  0  0
 24 23  1  0  0  0  0
 25 31  1  0  0  0  0
 28 19  1  0  0  0  0
 30 25  1  0  0  0  0
 32 25  1  0  0  0  0
 33 22  1  0  0  0  0
 34 24  1  0  0  0  0
 35 24  1  0  0  0  0
 36 24  1  0  0  0  0
 38 16  1  0  0  0  0
 40 15  1  0  0  0  0
 42  8  1  0  0  0  0
 43  8  1  0  0  0  0
 44  9  1  0  0  0  0
 45 11  1  0  0  0  0
 53 56  1  0  0  0  0
 53  2  1  0  0  0  0
 53 55  1  0  0  0  0
 54 53  1  0  0  0  0
 56 58  1  0  0  0  0
 57 56  1  0  0  0  0
M  END
$$$$
