M0001
     RDKit          3D

  9  8  0  0  0  0  0  0  0  0999 V2000
   -0.4330    0.0633   -0.1329 C   0  0  2  0  0  0  0  0  0  0  0  0
   -0.7364   -0.0471   -2.0493 Br  0  0  0  0  0  0  0  0  0  0  0  0
   -1.2850    1.4767    0.5057 Cl  0  0  0  0  0  0  0  0  0  0  0  0
    1.0528    0.1391    0.1533 C   0  0  2  0  0  0  0  0  0  0  0  0
    1.5191    1.0175   -0.3062 H   0  0  0  0  0  0  0  0  0  0  0  0
    1.5706   -0.7526   -0.2199 H   0  0  0  0  0  0  0  0  0  0  0  0
    1.2425    0.1717    1.2325 H   0  0  0  0  0  0  0  0  0  0  0  0
   -0.9868   -1.0867    0.4737 O   0  0  0  0  0  0  0  0  0  0  0  0
   -1.9438   -0.9818    0.3432 H   0  0  0  0  0  0  0  0  0  0  0  0
  1  2  1  0
  1  3  1  1
  4  5  1  6
  4  6  1  0
  4  7  1  0
  1  4  1  0
  8  9  1  0
  1  8  1  0
M  END
$$$$
M0001
     RDKit          3D

  9  8  0  0  0  0  0  0  0  0999 V2000
    0.4330    0.0633   -0.1329 C   0  0  1  0  0  0  0  0  0  0  0  0
    0.7364   -0.0471   -2.0493 Br  0  0  0  0  0  0  0  0  0  0  0  0
    1.2850    1.4767    0.5057 Cl  0  0  0  0  0  0  0  0  0  0  0  0
   -1.0528    0.1391    0.1533 C   0  0  1  0  0  0  0  0  0  0  0  0
   -1.5191    1.0175   -0.3062 H   0  0  0  0  0  0  0  0  0  0  0  0
   -1.5706   -0.7526   -0.2199 H   0  0  0  0  0  0  0  0  0  0  0  0
   -1.2425    0.1717    1.2325 H   0  0  0  0  0  0  0  0  0  0  0  0
    0.9868   -1.0867    0.4737 O   0  0  0  0  0  0  0  0  0  0  0  0
    1.9438   -0.9818    0.3432 H   0  0  0  0  0  0  0  0  0  0  0  0
  1  2  1  0
  1  3  1  6
  4  5  1  1
  4  6  1  0
  4  7  1  0
  1  4  1  0
  8  9  1  0
  1  8  1  0
M  END
$$$$
