
     RDKit          3D

 11 10  0  0  0  0  0  0  0  0999 V2000
    0.0858    1.2340    0.0323 C   0  0  0  0  0  0  0  0  0  0  0  0
    0.0845   -0.0667    0.0535 C   0  0  0  0  0  0  0  0  0  0  0  0
    0.0832   -1.3590    0.0723 C   0  0  0  0  0  0  0  0  0  0  0  0
    1.2419    1.9238    0.0052 O   0  0  0  0  0  0  0  0  0  0  0  0
   -1.1965    1.9651    0.0234 C   0  0  2  0  0  0  0  0  0  0  0  0
    0.0092   -2.2105   -1.4462 Cl  0  0  0  0  0  0  0  0  0  0  0  0
    0.0360   -2.0149    1.2664 F   0  0  0  0  0  0  0  0  0  0  0  0
   -2.0674    1.2665    0.0280 H   0  0  0  0  0  0  0  0  0  0  0  0
   -1.2164    2.5804   -0.9015 H   0  0  0  0  0  0  0  0  0  0  0  0
   -1.2125    2.5979    0.9326 H   0  0  0  0  0  0  0  0  0  0  0  0
    2.0883    1.4654   -0.0028 H   0  0  0  0  0  0  0  0  0  0  0  0
  1  2  2  0
  1  4  1  0
  1  5  1  0
  2  3  2  0
  3  6  1  0
  3  7  1  0
  4 11  1  0
  5  8  1  1
  5  9  1  0
  5 10  1  0
M  END
$$$$

     RDKit          3D

 11 10  0  0  0  0  0  0  0  0999 V2000
   -0.0858    1.2340    0.0323 C   0  0  0  0  0  0  0  0  0  0  0  0
   -0.0845   -0.0667    0.0535 C   0  0  0  0  0  0  0  0  0  0  0  0
   -0.0832   -1.3590    0.0723 C   0  0  0  0  0  0  0  0  0  0  0  0
   -1.2419    1.9238    0.0052 O   0  0  0  0  0  0  0  0  0  0  0  0
    1.1965    1.9651    0.0234 C   0  0  1  0  0  0  0  0  0  0  0  0
   -0.0092   -2.2105   -1.4462 Cl  0  0  0  0  0  0  0  0  0  0  0  0
   -0.0360   -2.0149    1.2664 F   0  0  0  0  0  0  0  0  0  0  0  0
    2.0674    1.2665    0.0280 H   0  0  0  0  0  0  0  0  0  0  0  0
    1.2164    2.5804   -0.9015 H   0  0  0  0  0  0  0  0  0  0  0  0
    1.2125    2.5979    0.9326 H   0  0  0  0  0  0  0  0  0  0  0  0
   -2.0883    1.4654   -0.0028 H   0  0  0  0  0  0  0  0  0  0  0  0
  1  2  2  0
  1  4  1  0
  1  5  1  0
  2  3  2  0
  3  6  1  0
  3  7  1  0
  4 11  1  0
  5  8  1  6
  5  9  1  0
  5 10  1  0
M  END
$$$$

     RDKit          3D

 11 10  0  0  0  0  0  0  0  0999 V2000
    0.0858   -1.2340    0.0323 C   0  0  0  0  0  0  0  0  0  0  0  0
    0.0845    0.0667    0.0535 C   0  0  0  0  0  0  0  0  0  0  0  0
    0.0832    1.3590    0.0723 C   0  0  0  0  0  0  0  0  0  0  0  0
    1.2419   -1.9238    0.0052 O   0  0  0  0  0  0  0  0  0  0  0  0
   -1.1965   -1.9651    0.0234 C   0  0  1  0  0  0  0  0  0  0  0  0
    0.0092    2.2105   -1.4462 Cl  0  0  0  0  0  0  0  0  0  0  0  0
    0.0360    2.0149    1.2664 F   0  0  0  0  0  0  0  0  0  0  0  0
   -2.0674   -1.2665    0.0280 H   0  0  0  0  0  0  0  0  0  0  0  0
   -1.2164   -2.5804   -0.9015 H   0  0  0  0  0  0  0  0  0  0  0  0
   -1.2125   -2.5979    0.9326 H   0  0  0  0  0  0  0  0  0  0  0  0
    2.0883   -1.4654   -0.0028 H   0  0  0  0  0  0  0  0  0  0  0  0
  1  2  2  0
  1  4  1  0
  1  5  1  0
  2  3  2  0
  3  6  1  0
  3  7  1  0
  4 11  1  0
  5  8  1  6
  5  9  1  0
  5 10  1  0
M  END
$$$$

     RDKit          3D

 11 10  0  0  0  0  0  0  0  0999 V2000
    0.0858    1.2340   -0.0323 C   0  0  0  0  0  0  0  0  0  0  0  0
    0.0845   -0.0667   -0.0535 C   0  0  0  0  0  0  0  0  0  0  0  0
    0.0832   -1.3590   -0.0723 C   0  0  0  0  0  0  0  0  0  0  0  0
    1.2419    1.9238   -0.0052 O   0  0  0  0  0  0  0  0  0  0  0  0
   -1.1965    1.9651   -0.0234 C   0  0  1  0  0  0  0  0  0  0  0  0
    0.0092   -2.2105    1.4462 Cl  0  0  0  0  0  0  0  0  0  0  0  0
    0.0360   -2.0149   -1.2664 F   0  0  0  0  0  0  0  0  0  0  0  0
   -2.0674    1.2665   -0.0280 H   0  0  0  0  0  0  0  0  0  0  0  0
   -1.2164    2.5804    0.9015 H   0  0  0  0  0  0  0  0  0  0  0  0
   -1.2125    2.5979   -0.9326 H   0  0  0  0  0  0  0  0  0  0  0  0
    2.0883    1.4654    0.0028 H   0  0  0  0  0  0  0  0  0  0  0  0
  1  2  2  0
  1  4  1  0
  1  5  1  0
  2  3  2  0
  3  6  1  0
  3  7  1  0
  4 11  1  0
  5  8  1  1
  5  9  1  0
  5 10  1  0
M  END
$$$$
