M0001
     RDKit          3D

 11 10  0  0  0  0  0  0  0  0999 V2000
   -0.3043    0.0121   -0.4877 C   0  0  0  0  0  0  0  0  0  0  0  0
   -1.5876   -0.0995   -0.9761 O   0  0  0  0  0  0  0  0  0  0  0  0
   -2.2073   -0.1689   -0.2283 H   0  0  0  0  0  0  0  0  0  0  0  0
    0.7750    0.1236   -1.5092 C   0  0  2  0  0  0  0  0  0  0  0  0
    0.7794   -0.7601   -2.1550 H   0  0  0  0  0  0  0  0  0  0  0  0
    1.7626    0.2097   -1.0445 H   0  0  0  0  0  0  0  0  0  0  0  0
    0.6158    1.0075   -2.1349 H   0  0  0  0  0  0  0  0  0  0  0  0
   -0.1478    0.0073    0.8031 C   0  0  0  0  0  0  0  0  0  0  0  0
    0.0334    0.0093    2.0870 C   0  0  0  0  0  0  0  0  0  0  0  0
    0.2679   -1.4996    2.8565 Cl  0  0  0  0  0  0  0  0  0  0  0  0
    0.0128    1.1585    2.7892 F   0  0  0  0  0  0  0  0  0  0  0  0
  2  3  1  0
  1  2  1  0
  4  5  1  6
  4  6  1  0
  4  7  1  0
  1  4  1  0
  1  8  2  0
  8  9  2  0
  9 10  1  0
  9 11  1  0
M  END
$$$$
M0001
     RDKit          3D

 11 10  0  0  0  0  0  0  0  0999 V2000
    0.3043    0.0121   -0.4877 C   0  0  0  0  0  0  0  0  0  0  0  0
    1.5876   -0.0995   -0.9761 O   0  0  0  0  0  0  0  0  0  0  0  0
    2.2073   -0.1689   -0.2283 H   0  0  0  0  0  0  0  0  0  0  0  0
   -0.7750    0.1236   -1.5092 C   0  0  1  0  0  0  0  0  0  0  0  0
   -0.7794   -0.7601   -2.1550 H   0  0  0  0  0  0  0  0  0  0  0  0
   -1.7626    0.2097   -1.0445 H   0  0  0  0  0  0  0  0  0  0  0  0
   -0.6158    1.0075   -2.1349 H   0  0  0  0  0  0  0  0  0  0  0  0
    0.1478    0.0073    0.8031 C   0  0  0  0  0  0  0  0  0  0  0  0
   -0.0334    0.0093    2.0870 C   0  0  0  0  0  0  0  0  0  0  0  0
   -0.2679   -1.4996    2.8565 Cl  0  0  0  0  0  0  0  0  0  0  0  0
   -0.0128    1.1585    2.7892 F   0  0  0  0  0  0  0  0  0  0  0  0
  2  3  1  0
  1  2  1  0
  4  5  1  1
  4  6  1  0
  4  7  1  0
  1  4  1  0
  1  8  2  0
  8  9  2  0
  9 10  1  0
  9 11  1  0
M  END
$$$$
