
     RDKit          3D

 31 32  0  0  0  0  0  0  0  0999 V2000
    3.4776   -0.3707   -1.4128 H   0  0  0  0  0  0  0  0  0  0  0  0
    2.0311   -1.6887   -1.1285 O   0  0  0  0  0  0  0  0  0  0  0  0
    0.3484    0.4552    0.0204 C   0  0  0  0  0  0  0  0  0  0  0  0
   -0.3117   -0.8702    0.0015 C   0  0  0  0  0  0  0  0  0  0  0  0
    1.6787    0.5780   -0.4874 C   0  0  0  0  0  0  0  0  0  0  0  0
   -1.1259   -1.1973   -1.0959 C   0  0  0  0  0  0  0  0  0  0  0  0
   -0.3116    1.6180    0.5356 C   0  0  0  0  0  0  0  0  0  0  0  0
   -0.1177   -1.8208    1.0361 C   0  0  0  0  0  0  0  0  0  0  0  0
    2.3075    1.8316   -0.4737 C   0  0  0  0  0  0  0  0  0  0  0  0
   -1.7540   -2.4419   -1.1652 C   0  0  0  0  0  0  0  0  0  0  0  0
    0.3641    2.8434    0.5229 C   0  0  0  0  0  0  0  0  0  0  0  0
   -0.7580   -3.0678    0.9485 C   0  0  0  0  0  0  0  0  0  0  0  0
    1.6561    2.9517    0.0252 C   0  0  0  0  0  0  0  0  0  0  0  0
   -1.5716   -3.3746   -0.1443 C   0  0  0  0  0  0  0  0  0  0  0  0
    2.4703   -0.5532   -1.0508 C   0  0  0  0  0  0  0  0  0  0  0  0
    3.3153    1.9477   -0.8547 H   0  0  0  0  0  0  0  0  0  0  0  0
   -2.3821   -2.6839   -2.0127 H   0  0  0  0  0  0  0  0  0  0  0  0
   -0.1227    3.7301    0.9107 H   0  0  0  0  0  0  0  0  0  0  0  0
   -0.6252   -3.8059    1.7302 H   0  0  0  0  0  0  0  0  0  0  0  0
    2.1570    3.9114    0.0278 H   0  0  0  0  0  0  0  0  0  0  0  0
   -2.0594   -4.3392   -0.2009 H   0  0  0  0  0  0  0  0  0  0  0  0
   -1.2740   -0.4841   -1.8978 H   0  0  0  0  0  0  0  0  0  0  0  0
    0.7490   -1.5502    2.2382 C   0  0  2  0  0  0  0  0  0  0  0  0
    1.2079   -0.5415    2.2236 H   0  0  0  0  0  0  0  0  0  0  0  0
    1.5683   -2.2985    2.2799 H   0  0  0  0  0  0  0  0  0  0  0  0
    0.1373   -1.6322    3.1611 H   0  0  0  0  0  0  0  0  0  0  0  0
   -1.5674    1.6580    1.0671 O   0  0  0  0  0  0  0  0  0  0  0  0
   -2.4907    0.6534    1.2548 C   0  0  2  0  0  0  0  0  0  0  0  0
   -3.3872    1.0848    1.7448 H   0  0  0  0  0  0  0  0  0  0  0  0
   -2.0846   -0.1297    1.9263 H   0  0  0  0  0  0  0  0  0  0  0  0
   -2.8176    0.2361    0.2831 H   0  0  0  0  0  0  0  0  0  0  0  0
  1 15  1  0
  2 15  2  0
  3  4  1  0
  3  5  2  0
  3  7  1  0
  4  6  2  0
  4  8  1  0
  5  9  1  0
  5 15  1  0
  6 10  1  0
  6 22  1  0
  7 11  2  0
  7 27  1  0
  8 12  2  0
  8 23  1  0
  9 13  2  0
  9 16  1  0
 10 14  2  0
 10 17  1  0
 11 13  1  0
 11 18  1  0
 12 14  1  0
 12 19  1  0
 13 20  1  0
 14 21  1  0
 23 24  1  6
 23 25  1  0
 23 26  1  0
 27 28  1  0
 28 29  1  1
 28 30  1  0
 28 31  1  0
M  END
$$$$

     RDKit          3D

 31 32  0  0  0  0  0  0  0  0999 V2000
   -3.4776   -0.3707   -1.4128 H   0  0  0  0  0  0  0  0  0  0  0  0
   -2.0311   -1.6887   -1.1285 O   0  0  0  0  0  0  0  0  0  0  0  0
   -0.3484    0.4552    0.0204 C   0  0  0  0  0  0  0  0  0  0  0  0
    0.3117   -0.8702    0.0015 C   0  0  0  0  0  0  0  0  0  0  0  0
   -1.6787    0.5780   -0.4874 C   0  0  0  0  0  0  0  0  0  0  0  0
    1.1259   -1.1973   -1.0959 C   0  0  0  0  0  0  0  0  0  0  0  0
    0.3116    1.6180    0.5356 C   0  0  0  0  0  0  0  0  0  0  0  0
    0.1177   -1.8208    1.0361 C   0  0  0  0  0  0  0  0  0  0  0  0
   -2.3075    1.8316   -0.4737 C   0  0  0  0  0  0  0  0  0  0  0  0
    1.7540   -2.4419   -1.1652 C   0  0  0  0  0  0  0  0  0  0  0  0
   -0.3641    2.8434    0.5229 C   0  0  0  0  0  0  0  0  0  0  0  0
    0.7580   -3.0678    0.9485 C   0  0  0  0  0  0  0  0  0  0  0  0
   -1.6561    2.9517    0.0252 C   0  0  0  0  0  0  0  0  0  0  0  0
    1.5716   -3.3746   -0.1443 C   0  0  0  0  0  0  0  0  0  0  0  0
   -2.4703   -0.5532   -1.0508 C   0  0  0  0  0  0  0  0  0  0  0  0
   -3.3153    1.9477   -0.8547 H   0  0  0  0  0  0  0  0  0  0  0  0
    2.3821   -2.6839   -2.0127 H   0  0  0  0  0  0  0  0  0  0  0  0
    0.1227    3.7301    0.9107 H   0  0  0  0  0  0  0  0  0  0  0  0
    0.6252   -3.8059    1.7302 H   0  0  0  0  0  0  0  0  0  0  0  0
   -2.1570    3.9114    0.0278 H   0  0  0  0  0  0  0  0  0  0  0  0
    2.0594   -4.3392   -0.2009 H   0  0  0  0  0  0  0  0  0  0  0  0
    1.2740   -0.4841   -1.8978 H   0  0  0  0  0  0  0  0  0  0  0  0
   -0.7490   -1.5502    2.2382 C   0  0  1  0  0  0  0  0  0  0  0  0
   -1.2079   -0.5415    2.2236 H   0  0  0  0  0  0  0  0  0  0  0  0
   -1.5683   -2.2985    2.2799 H   0  0  0  0  0  0  0  0  0  0  0  0
   -0.1373   -1.6322    3.1611 H   0  0  0  0  0  0  0  0  0  0  0  0
    1.5674    1.6580    1.0671 O   0  0  0  0  0  0  0  0  0  0  0  0
    2.4907    0.6534    1.2548 C   0  0  1  0  0  0  0  0  0  0  0  0
    3.3872    1.0848    1.7448 H   0  0  0  0  0  0  0  0  0  0  0  0
    2.0846   -0.1297    1.9263 H   0  0  0  0  0  0  0  0  0  0  0  0
    2.8176    0.2361    0.2831 H   0  0  0  0  0  0  0  0  0  0  0  0
  1 15  1  0
  2 15  2  0
  3  4  1  0
  3  5  2  0
  3  7  1  0
  4  6  2  0
  4  8  1  0
  5  9  1  0
  5 15  1  0
  6 10  1  0
  6 22  1  0
  7 11  2  0
  7 27  1  0
  8 12  2  0
  8 23  1  0
  9 13  2  0
  9 16  1  0
 10 14  2  0
 10 17  1  0
 11 13  1  0
 11 18  1  0
 12 14  1  0
 12 19  1  0
 13 20  1  0
 14 21  1  0
 23 24  1  1
 23 25  1  0
 23 26  1  0
 27 28  1  0
 28 29  1  6
 28 30  1  0
 28 31  1  0
M  END
$$$$

     RDKit          3D

 31 32  0  0  0  0  0  0  0  0999 V2000
    3.4776    0.3707   -1.4128 H   0  0  0  0  0  0  0  0  0  0  0  0
    2.0311    1.6887   -1.1285 O   0  0  0  0  0  0  0  0  0  0  0  0
    0.3484   -0.4552    0.0204 C   0  0  0  0  0  0  0  0  0  0  0  0
   -0.3117    0.8702    0.0015 C   0  0  0  0  0  0  0  0  0  0  0  0
    1.6787   -0.5780   -0.4874 C   0  0  0  0  0  0  0  0  0  0  0  0
   -1.1259    1.1973   -1.0959 C   0  0  0  0  0  0  0  0  0  0  0  0
   -0.3116   -1.6180    0.5356 C   0  0  0  0  0  0  0  0  0  0  0  0
   -0.1177    1.8208    1.0361 C   0  0  0  0  0  0  0  0  0  0  0  0
    2.3075   -1.8316   -0.4737 C   0  0  0  0  0  0  0  0  0  0  0  0
   -1.7540    2.4419   -1.1652 C   0  0  0  0  0  0  0  0  0  0  0  0
    0.3641   -2.8434    0.5229 C   0  0  0  0  0  0  0  0  0  0  0  0
   -0.7580    3.0678    0.9485 C   0  0  0  0  0  0  0  0  0  0  0  0
    1.6561   -2.9517    0.0252 C   0  0  0  0  0  0  0  0  0  0  0  0
   -1.5716    3.3746   -0.1443 C   0  0  0  0  0  0  0  0  0  0  0  0
    2.4703    0.5532   -1.0508 C   0  0  0  0  0  0  0  0  0  0  0  0
    3.3153   -1.9477   -0.8547 H   0  0  0  0  0  0  0  0  0  0  0  0
   -2.3821    2.6839   -2.0127 H   0  0  0  0  0  0  0  0  0  0  0  0
   -0.1227   -3.7301    0.9107 H   0  0  0  0  0  0  0  0  0  0  0  0
   -0.6252    3.8059    1.7302 H   0  0  0  0  0  0  0  0  0  0  0  0
    2.1570   -3.9114    0.0278 H   0  0  0  0  0  0  0  0  0  0  0  0
   -2.0594    4.3392   -0.2009 H   0  0  0  0  0  0  0  0  0  0  0  0
   -1.2740    0.4841   -1.8978 H   0  0  0  0  0  0  0  0  0  0  0  0
    0.7490    1.5502    2.2382 C   0  0  1  0  0  0  0  0  0  0  0  0
    1.2079    0.5415    2.2236 H   0  0  0  0  0  0  0  0  0  0  0  0
    1.5683    2.2985    2.2799 H   0  0  0  0  0  0  0  0  0  0  0  0
    0.1373    1.6322    3.1611 H   0  0  0  0  0  0  0  0  0  0  0  0
   -1.5674   -1.6580    1.0671 O   0  0  0  0  0  0  0  0  0  0  0  0
   -2.4907   -0.6534    1.2548 C   0  0  1  0  0  0  0  0  0  0  0  0
   -3.3872   -1.0848    1.7448 H   0  0  0  0  0  0  0  0  0  0  0  0
   -2.0846    0.1297    1.9263 H   0  0  0  0  0  0  0  0  0  0  0  0
   -2.8176   -0.2361    0.2831 H   0  0  0  0  0  0  0  0  0  0  0  0
  1 15  1  0
  2 15  2  0
  3  4  1  0
  3  5  2  0
  3  7  1  0
  4  6  2  0
  4  8  1  0
  5  9  1  0
  5 15  1  0
  6 10  1  0
  6 22  1  0
  7 11  2  0
  7 27  1  0
  8 12  2  0
  8 23  1  0
  9 13  2  0
  9 16  1  0
 10 14  2  0
 10 17  1  0
 11 13  1  0
 11 18  1  0
 12 14  1  0
 12 19  1  0
 13 20  1  0
 14 21  1  0
 23 24  1  1
 23 25  1  0
 23 26  1  0
 27 28  1  0
 28 29  1  6
 28 30  1  0
 28 31  1  0
M  END
$$$$

     RDKit          3D

 31 32  0  0  0  0  0  0  0  0999 V2000
    3.4776   -0.3707    1.4128 H   0  0  0  0  0  0  0  0  0  0  0  0
    2.0311   -1.6887    1.1285 O   0  0  0  0  0  0  0  0  0  0  0  0
    0.3484    0.4552   -0.0204 C   0  0  0  0  0  0  0  0  0  0  0  0
   -0.3117   -0.8702   -0.0015 C   0  0  0  0  0  0  0  0  0  0  0  0
    1.6787    0.5780    0.4874 C   0  0  0  0  0  0  0  0  0  0  0  0
   -1.1259   -1.1973    1.0959 C   0  0  0  0  0  0  0  0  0  0  0  0
   -0.3116    1.6180   -0.5356 C   0  0  0  0  0  0  0  0  0  0  0  0
   -0.1177   -1.8208   -1.0361 C   0  0  0  0  0  0  0  0  0  0  0  0
    2.3075    1.8316    0.4737 C   0  0  0  0  0  0  0  0  0  0  0  0
   -1.7540   -2.4419    1.1652 C   0  0  0  0  0  0  0  0  0  0  0  0
    0.3641    2.8434   -0.5229 C   0  0  0  0  0  0  0  0  0  0  0  0
   -0.7580   -3.0678   -0.9485 C   0  0  0  0  0  0  0  0  0  0  0  0
    1.6561    2.9517   -0.0252 C   0  0  0  0  0  0  0  0  0  0  0  0
   -1.5716   -3.3746    0.1443 C   0  0  0  0  0  0  0  0  0  0  0  0
    2.4703   -0.5532    1.0508 C   0  0  0  0  0  0  0  0  0  0  0  0
    3.3153    1.9477    0.8547 H   0  0  0  0  0  0  0  0  0  0  0  0
   -2.3821   -2.6839    2.0127 H   0  0  0  0  0  0  0  0  0  0  0  0
   -0.1227    3.7301   -0.9107 H   0  0  0  0  0  0  0  0  0  0  0  0
   -0.6252   -3.8059   -1.7302 H   0  0  0  0  0  0  0  0  0  0  0  0
    2.1570    3.9114   -0.0278 H   0  0  0  0  0  0  0  0  0  0  0  0
   -2.0594   -4.3392    0.2009 H   0  0  0  0  0  0  0  0  0  0  0  0
   -1.2740   -0.4841    1.8978 H   0  0  0  0  0  0  0  0  0  0  0  0
    0.7490   -1.5502   -2.2382 C   0  0  1  0  0  0  0  0  0  0  0  0
    1.2079   -0.5415   -2.2236 H   0  0  0  0  0  0  0  0  0  0  0  0
    1.5683   -2.2985   -2.2799 H   0  0  0  0  0  0  0  0  0  0  0  0
    0.1373   -1.6322   -3.1611 H   0  0  0  0  0  0  0  0  0  0  0  0
   -1.5674    1.6580   -1.0671 O   0  0  0  0  0  0  0  0  0  0  0  0
   -2.4907    0.6534   -1.2548 C   0  0  1  0  0  0  0  0  0  0  0  0
   -3.3872    1.0848   -1.7448 H   0  0  0  0  0  0  0  0  0  0  0  0
   -2.0846   -0.1297   -1.9263 H   0  0  0  0  0  0  0  0  0  0  0  0
   -2.8176    0.2361   -0.2831 H   0  0  0  0  0  0  0  0  0  0  0  0
  1 15  1  0
  2 15  2  0
  3  4  1  0
  3  5  2  0
  3  7  1  0
  4  6  2  0
  4  8  1  0
  5  9  1  0
  5 15  1  0
  6 10  1  0
  6 22  1  0
  7 11  2  0
  7 27  1  0
  8 12  2  0
  8 23  1  0
  9 13  2  0
  9 16  1  0
 10 14  2  0
 10 17  1  0
 11 13  1  0
 11 18  1  0
 12 14  1  0
 12 19  1  0
 13 20  1  0
 14 21  1  0
 23 24  1  6
 23 25  1  0
 23 26  1  0
 27 28  1  0
 28 29  1  1
 28 30  1  0
 28 31  1  0
M  END
$$$$
