
     RDKit          3D

 35 37  0  0  0  0  0  0  0  0999 V2000
    1.2018   -0.3710    0.2377 C   0  0  0  0  0  0  0  0  0  0  0  0
    1.1084    1.0353    0.2397 C   0  0  0  0  0  0  0  0  0  0  0  0
    2.1285    1.7653    0.9349 C   0  0  0  0  0  0  0  0  0  0  0  0
    2.9899    1.0784    1.8158 C   0  0  0  0  0  0  0  0  0  0  0  0
    3.0430   -0.3204    1.8083 C   0  0  0  0  0  0  0  0  0  0  0  0
    2.2374   -1.0348    0.9133 C   0  0  0  0  0  0  0  0  0  0  0  0
    0.5589   -0.9409   -0.4211 H   0  0  0  0  0  0  0  0  0  0  0  0
    3.7583    1.6129    2.3613 H   0  0  0  0  0  0  0  0  0  0  0  0
    3.8426   -0.8141    2.3464 H   0  0  0  0  0  0  0  0  0  0  0  0
    4.3921   -0.9737   -0.7704 C   0  0  0  0  0  0  0  0  0  0  0  0
    5.3790   -0.2809   -0.0472 C   0  0  0  0  0  0  0  0  0  0  0  0
    4.3534    1.8159   -0.6935 C   0  0  0  0  0  0  0  0  0  0  0  0
    5.3585    1.1111   -0.0079 C   0  0  0  0  0  0  0  0  0  0  0  0
    3.5361    1.1371   -1.6173 C   0  0  0  0  0  0  0  0  0  0  0  0
    3.5544   -0.2678   -1.6548 C   0  0  0  0  0  0  0  0  0  0  0  0
    2.7565    1.6620   -2.1550 H   0  0  0  0  0  0  0  0  0  0  0  0
    6.0380   -0.7956    0.6412 H   0  0  0  0  0  0  0  0  0  0  0  0
    2.7872   -0.7831   -2.2189 H   0  0  0  0  0  0  0  0  0  0  0  0
    6.0039    1.6059    0.7075 H   0  0  0  0  0  0  0  0  0  0  0  0
    2.5418    3.1981    0.5225 C   0  0  2  0  0  0  0  0  0  0  0  0
    3.9784    3.2121   -0.1819 C   0  0  1  0  0  0  0  0  0  0  0  0
    2.4844    3.9349    1.3514 H   0  0  0  0  0  0  0  0  0  0  0  0
    1.8803    3.5713   -0.2670 H   0  0  0  0  0  0  0  0  0  0  0  0
    4.7066    3.4806    0.6139 H   0  0  0  0  0  0  0  0  0  0  0  0
    4.0520    4.0060   -0.9555 H   0  0  0  0  0  0  0  0  0  0  0  0
    2.6402   -2.4373    0.4307 C   0  0  2  0  0  0  0  0  0  0  0  0
    4.0494   -2.4014   -0.3260 C   0  0  1  0  0  0  0  0  0  0  0  0
    1.8966   -2.7510   -0.3335 H   0  0  0  0  0  0  0  0  0  0  0  0
    2.6185   -3.2106    1.2273 H   0  0  0  0  0  0  0  0  0  0  0  0
    4.1048   -3.1542   -1.1405 H   0  0  0  0  0  0  0  0  0  0  0  0
    4.8054   -2.7014    0.4319 H   0  0  0  0  0  0  0  0  0  0  0  0
    0.0483    1.6440   -0.6309 C   0  0  0  0  0  0  0  0  0  0  0  0
   -0.7243    0.8510   -1.4069 O   0  0  0  0  0  0  0  0  0  0  0  0
   -1.4356    1.2131   -1.9545 H   0  0  0  0  0  0  0  0  0  0  0  0
   -0.1956    2.8393   -0.5991 O   0  0  0  0  0  0  0  0  0  0  0  0
  1  2  2  0
  1  7  1  0
  2  3  1  0
  2 32  1  0
  3  4  2  0
  3 20  1  0
  4  5  1  0
  4  8  1  0
  5  6  2  0
  5  9  1  0
  6  1  1  0
  6 26  1  0
 10 15  1  0
 11 10  2  0
 11 17  1  0
 12 13  2  0
 13 11  1  0
 13 19  1  0
 14 12  1  0
 14 16  1  0
 15 14  2  0
 15 18  1  0
 20 21  1  0
 20 22  1  1
 20 23  1  0
 21 12  1  0
 21 24  1  1
 21 25  1  0
 26 27  1  0
 26 28  1  6
 26 29  1  0
 27 10  1  0
 27 30  1  6
 27 31  1  0
 32 33  1  0
 32 35  2  0
 33 34  1  0
M  END
$$$$

     RDKit          3D

 35 37  0  0  0  0  0  0  0  0999 V2000
   -1.2018   -0.3710    0.2377 C   0  0  0  0  0  0  0  0  0  0  0  0
   -1.1084    1.0353    0.2397 C   0  0  0  0  0  0  0  0  0  0  0  0
   -2.1285    1.7653    0.9349 C   0  0  0  0  0  0  0  0  0  0  0  0
   -2.9899    1.0784    1.8158 C   0  0  0  0  0  0  0  0  0  0  0  0
   -3.0430   -0.3204    1.8083 C   0  0  0  0  0  0  0  0  0  0  0  0
   -2.2374   -1.0348    0.9133 C   0  0  0  0  0  0  0  0  0  0  0  0
   -0.5589   -0.9409   -0.4211 H   0  0  0  0  0  0  0  0  0  0  0  0
   -3.7583    1.6129    2.3613 H   0  0  0  0  0  0  0  0  0  0  0  0
   -3.8426   -0.8141    2.3464 H   0  0  0  0  0  0  0  0  0  0  0  0
   -4.3921   -0.9737   -0.7704 C   0  0  0  0  0  0  0  0  0  0  0  0
   -5.3790   -0.2809   -0.0472 C   0  0  0  0  0  0  0  0  0  0  0  0
   -4.3534    1.8159   -0.6935 C   0  0  0  0  0  0  0  0  0  0  0  0
   -5.3585    1.1111   -0.0079 C   0  0  0  0  0  0  0  0  0  0  0  0
   -3.5361    1.1371   -1.6173 C   0  0  0  0  0  0  0  0  0  0  0  0
   -3.5544   -0.2678   -1.6548 C   0  0  0  0  0  0  0  0  0  0  0  0
   -2.7565    1.6620   -2.1550 H   0  0  0  0  0  0  0  0  0  0  0  0
   -6.0380   -0.7956    0.6412 H   0  0  0  0  0  0  0  0  0  0  0  0
   -2.7872   -0.7831   -2.2189 H   0  0  0  0  0  0  0  0  0  0  0  0
   -6.0039    1.6059    0.7075 H   0  0  0  0  0  0  0  0  0  0  0  0
   -2.5418    3.1981    0.5225 C   0  0  1  0  0  0  0  0  0  0  0  0
   -3.9784    3.2121   -0.1819 C   0  0  2  0  0  0  0  0  0  0  0  0
   -2.4844    3.9349    1.3514 H   0  0  0  0  0  0  0  0  0  0  0  0
   -1.8803    3.5713   -0.2670 H   0  0  0  0  0  0  0  0  0  0  0  0
   -4.7066    3.4806    0.6139 H   0  0  0  0  0  0  0  0  0  0  0  0
   -4.0520    4.0060   -0.9555 H   0  0  0  0  0  0  0  0  0  0  0  0
   -2.6402   -2.4373    0.4307 C   0  0  1  0  0  0  0  0  0  0  0  0
   -4.0494   -2.4014   -0.3260 C   0  0  2  0  0  0  0  0  0  0  0  0
   -1.8966   -2.7510   -0.3335 H   0  0  0  0  0  0  0  0  0  0  0  0
   -2.6185   -3.2106    1.2273 H   0  0  0  0  0  0  0  0  0  0  0  0
   -4.1048   -3.1542   -1.1405 H   0  0  0  0  0  0  0  0  0  0  0  0
   -4.8054   -2.7014    0.4319 H   0  0  0  0  0  0  0  0  0  0  0  0
   -0.0483    1.6440   -0.6309 C   0  0  0  0  0  0  0  0  0  0  0  0
    0.7243    0.8510   -1.4069 O   0  0  0  0  0  0  0  0  0  0  0  0
    1.4356    1.2131   -1.9545 H   0  0  0  0  0  0  0  0  0  0  0  0
    0.1956    2.8393   -0.5991 O   0  0  0  0  0  0  0  0  0  0  0  0
  1  2  2  0
  1  7  1  0
  2  3  1  0
  2 32  1  0
  3  4  2  0
  3 20  1  0
  4  5  1  0
  4  8  1  0
  5  6  2  0
  5  9  1  0
  6  1  1  0
  6 26  1  0
 10 15  1  0
 11 10  2  0
 11 17  1  0
 12 13  2  0
 13 11  1  0
 13 19  1  0
 14 12  1  0
 14 16  1  0
 15 14  2  0
 15 18  1  0
 20 21  1  0
 20 22  1  6
 20 23  1  0
 21 12  1  0
 21 24  1  6
 21 25  1  0
 26 27  1  0
 26 28  1  1
 26 29  1  0
 27 10  1  0
 27 30  1  1
 27 31  1  0
 32 33  1  0
 32 35  2  0
 33 34  1  0
M  END
$$$$

     RDKit          3D

 35 37  0  0  0  0  0  0  0  0999 V2000
    1.2018    0.3710    0.2377 C   0  0  0  0  0  0  0  0  0  0  0  0
    1.1084   -1.0353    0.2397 C   0  0  0  0  0  0  0  0  0  0  0  0
    2.1285   -1.7653    0.9349 C   0  0  0  0  0  0  0  0  0  0  0  0
    2.9899   -1.0784    1.8158 C   0  0  0  0  0  0  0  0  0  0  0  0
    3.0430    0.3204    1.8083 C   0  0  0  0  0  0  0  0  0  0  0  0
    2.2374    1.0348    0.9133 C   0  0  0  0  0  0  0  0  0  0  0  0
    0.5589    0.9409   -0.4211 H   0  0  0  0  0  0  0  0  0  0  0  0
    3.7583   -1.6129    2.3613 H   0  0  0  0  0  0  0  0  0  0  0  0
    3.8426    0.8141    2.3464 H   0  0  0  0  0  0  0  0  0  0  0  0
    4.3921    0.9737   -0.7704 C   0  0  0  0  0  0  0  0  0  0  0  0
    5.3790    0.2809   -0.0472 C   0  0  0  0  0  0  0  0  0  0  0  0
    4.3534   -1.8159   -0.6935 C   0  0  0  0  0  0  0  0  0  0  0  0
    5.3585   -1.1111   -0.0079 C   0  0  0  0  0  0  0  0  0  0  0  0
    3.5361   -1.1371   -1.6173 C   0  0  0  0  0  0  0  0  0  0  0  0
    3.5544    0.2678   -1.6548 C   0  0  0  0  0  0  0  0  0  0  0  0
    2.7565   -1.6620   -2.1550 H   0  0  0  0  0  0  0  0  0  0  0  0
    6.0380    0.7956    0.6412 H   0  0  0  0  0  0  0  0  0  0  0  0
    2.7872    0.7831   -2.2189 H   0  0  0  0  0  0  0  0  0  0  0  0
    6.0039   -1.6059    0.7075 H   0  0  0  0  0  0  0  0  0  0  0  0
    2.5418   -3.1981    0.5225 C   0  0  1  0  0  0  0  0  0  0  0  0
    3.9784   -3.2121   -0.1819 C   0  0  2  0  0  0  0  0  0  0  0  0
    2.4844   -3.9349    1.3514 H   0  0  0  0  0  0  0  0  0  0  0  0
    1.8803   -3.5713   -0.2670 H   0  0  0  0  0  0  0  0  0  0  0  0
    4.7066   -3.4806    0.6139 H   0  0  0  0  0  0  0  0  0  0  0  0
    4.0520   -4.0060   -0.9555 H   0  0  0  0  0  0  0  0  0  0  0  0
    2.6402    2.4373    0.4307 C   0  0  1  0  0  0  0  0  0  0  0  0
    4.0494    2.4014   -0.3260 C   0  0  2  0  0  0  0  0  0  0  0  0
    1.8966    2.7510   -0.3335 H   0  0  0  0  0  0  0  0  0  0  0  0
    2.6185    3.2106    1.2273 H   0  0  0  0  0  0  0  0  0  0  0  0
    4.1048    3.1542   -1.1405 H   0  0  0  0  0  0  0  0  0  0  0  0
    4.8054    2.7014    0.4319 H   0  0  0  0  0  0  0  0  0  0  0  0
    0.0483   -1.6440   -0.6309 C   0  0  0  0  0  0  0  0  0  0  0  0
   -0.7243   -0.8510   -1.4069 O   0  0  0  0  0  0  0  0  0  0  0  0
   -1.4356   -1.2131   -1.9545 H   0  0  0  0  0  0  0  0  0  0  0  0
   -0.1956   -2.8393   -0.5991 O   0  0  0  0  0  0  0  0  0  0  0  0
  1  2  2  0
  1  7  1  0
  2  3  1  0
  2 32  1  0
  3  4  2  0
  3 20  1  0
  4  5  1  0
  4  8  1  0
  5  6  2  0
  5  9  1  0
  6  1  1  0
  6 26  1  0
 10 15  1  0
 11 10  2  0
 11 17  1  0
 12 13  2  0
 13 11  1  0
 13 19  1  0
 14 12  1  0
 14 16  1  0
 15 14  2  0
 15 18  1  0
 20 21  1  0
 20 22  1  6
 20 23  1  0
 21 12  1  0
 21 24  1  6
 21 25  1  0
 26 27  1  0
 26 28  1  1
 26 29  1  0
 27 10  1  0
 27 30  1  1
 27 31  1  0
 32 33  1  0
 32 35  2  0
 33 34  1  0
M  END
$$$$

     RDKit          3D

 35 37  0  0  0  0  0  0  0  0999 V2000
    1.2018   -0.3710   -0.2377 C   0  0  0  0  0  0  0  0  0  0  0  0
    1.1084    1.0353   -0.2397 C   0  0  0  0  0  0  0  0  0  0  0  0
    2.1285    1.7653   -0.9349 C   0  0  0  0  0  0  0  0  0  0  0  0
    2.9899    1.0784   -1.8158 C   0  0  0  0  0  0  0  0  0  0  0  0
    3.0430   -0.3204   -1.8083 C   0  0  0  0  0  0  0  0  0  0  0  0
    2.2374   -1.0348   -0.9133 C   0  0  0  0  0  0  0  0  0  0  0  0
    0.5589   -0.9409    0.4211 H   0  0  0  0  0  0  0  0  0  0  0  0
    3.7583    1.6129   -2.3613 H   0  0  0  0  0  0  0  0  0  0  0  0
    3.8426   -0.8141   -2.3464 H   0  0  0  0  0  0  0  0  0  0  0  0
    4.3921   -0.9737    0.7704 C   0  0  0  0  0  0  0  0  0  0  0  0
    5.3790   -0.2809    0.0472 C   0  0  0  0  0  0  0  0  0  0  0  0
    4.3534    1.8159    0.6935 C   0  0  0  0  0  0  0  0  0  0  0  0
    5.3585    1.1111    0.0079 C   0  0  0  0  0  0  0  0  0  0  0  0
    3.5361    1.1371    1.6173 C   0  0  0  0  0  0  0  0  0  0  0  0
    3.5544   -0.2678    1.6548 C   0  0  0  0  0  0  0  0  0  0  0  0
    2.7565    1.6620    2.1550 H   0  0  0  0  0  0  0  0  0  0  0  0
    6.0380   -0.7956   -0.6412 H   0  0  0  0  0  0  0  0  0  0  0  0
    2.7872   -0.7831    2.2189 H   0  0  0  0  0  0  0  0  0  0  0  0
    6.0039    1.6059   -0.7075 H   0  0  0  0  0  0  0  0  0  0  0  0
    2.5418    3.1981   -0.5225 C   0  0  1  0  0  0  0  0  0  0  0  0
    3.9784    3.2121    0.1819 C   0  0  2  0  0  0  0  0  0  0  0  0
    2.4844    3.9349   -1.3514 H   0  0  0  0  0  0  0  0  0  0  0  0
    1.8803    3.5713    0.2670 H   0  0  0  0  0  0  0  0  0  0  0  0
    4.7066    3.4806   -0.6139 H   0  0  0  0  0  0  0  0  0  0  0  0
    4.0520    4.0060    0.9555 H   0  0  0  0  0  0  0  0  0  0  0  0
    2.6402   -2.4373   -0.4307 C   0  0  1  0  0  0  0  0  0  0  0  0
    4.0494   -2.4014    0.3260 C   0  0  2  0  0  0  0  0  0  0  0  0
    1.8966   -2.7510    0.3335 H   0  0  0  0  0  0  0  0  0  0  0  0
    2.6185   -3.2106   -1.2273 H   0  0  0  0  0  0  0  0  0  0  0  0
    4.1048   -3.1542    1.1405 H   0  0  0  0  0  0  0  0  0  0  0  0
    4.8054   -2.7014   -0.4319 H   0  0  0  0  0  0  0  0  0  0  0  0
    0.0483    1.6440    0.6309 C   0  0  0  0  0  0  0  0  0  0  0  0
   -0.7243    0.8510    1.4069 O   0  0  0  0  0  0  0  0  0  0  0  0
   -1.4356    1.2131    1.9545 H   0  0  0  0  0  0  0  0  0  0  0  0
   -0.1956    2.8393    0.5991 O   0  0  0  0  0  0  0  0  0  0  0  0
  1  2  2  0
  1  7  1  0
  2  3  1  0
  2 32  1  0
  3  4  2  0
  3 20  1  0
  4  5  1  0
  4  8  1  0
  5  6  2  0
  5  9  1  0
  6  1  1  0
  6 26  1  0
 10 15  1  0
 11 10  2  0
 11 17  1  0
 12 13  2  0
 13 11  1  0
 13 19  1  0
 14 12  1  0
 14 16  1  0
 15 14  2  0
 15 18  1  0
 20 21  1  0
 20 22  1  1
 20 23  1  0
 21 12  1  0
 21 24  1  1
 21 25  1  0
 26 27  1  0
 26 28  1  6
 26 29  1  0
 27 10  1  0
 27 30  1  6
 27 31  1  0
 32 33  1  0
 32 35  2  0
 33 34  1  0
M  END
$$$$
